data_HKUST-1
_audit_creation_date              2017-11-17
_audit_creation_method            'Materials Studio'
_symmetry_space_group_name_H-M    'P1'
_symmetry_Int_Tables_number       1
_symmetry_cell_setting            triclinic
loop_
_symmetry_equiv_pos_as_xyz
  x,y,z
_cell_length_a                    26.3430
_cell_length_b                    26.3430
_cell_length_c                    26.3430
_cell_angle_alpha                 90.0000
_cell_angle_beta                  90.0000
_cell_angle_gamma                 90.0000
loop_
_atom_site_label
_atom_site_type_symbol
_atom_site_fract_x
_atom_site_fract_y
_atom_site_fract_z
_atom_site_U_iso_or_equiv
_atom_site_adp_type
_atom_site_occupancy
O1     O     0.31664   0.24313   0.94776   0.05133  Uani   1.00
O2     O     0.31664   0.74313   0.44776   0.05133  Uani   1.00
O3     O     0.81664   0.24313   0.44776   0.05133  Uani   1.00
O4     O     0.81664   0.74313   0.94776   0.05133  Uani   1.00
O5     O     0.68336   0.75687   0.94776   0.05133  Uani   1.00
O6     O     0.68336   0.25687   0.44776   0.05133  Uani   1.00
O7     O     0.18336   0.75687   0.44776   0.05133  Uani   1.00
O8     O     0.18336   0.25687   0.94776   0.05133  Uani   1.00
O9     O     0.68336   0.24313   0.05224   0.05133  Uani   1.00
O10    O     0.68336   0.74313   0.55224   0.05133  Uani   1.00
O11    O     0.18336   0.24313   0.55224   0.05133  Uani   1.00
O12    O     0.18336   0.74313   0.05224   0.05133  Uani   1.00
O13    O     0.31664   0.75687   0.05224   0.05133  Uani   1.00
O14    O     0.31664   0.25687   0.55224   0.05133  Uani   1.00
O15    O     0.81664   0.75687   0.55224   0.05133  Uani   1.00
O16    O     0.81664   0.25687   0.05224   0.05133  Uani   1.00
O17    O     0.94776   0.31664   0.24313   0.05133  Uani   1.00
O18    O     0.94776   0.81664   0.74313   0.05133  Uani   1.00
O19    O     0.44776   0.31664   0.74313   0.05133  Uani   1.00
O20    O     0.44776   0.81664   0.24313   0.05133  Uani   1.00
O21    O     0.94776   0.68336   0.75687   0.05133  Uani   1.00
O22    O     0.94776   0.18336   0.25687   0.05133  Uani   1.00
O23    O     0.44776   0.68336   0.25687   0.05133  Uani   1.00
O24    O     0.44776   0.18336   0.75687   0.05133  Uani   1.00
O25    O     0.05224   0.68336   0.24313   0.05133  Uani   1.00
O26    O     0.05224   0.18336   0.74313   0.05133  Uani   1.00
O27    O     0.55224   0.68336   0.74313   0.05133  Uani   1.00
O28    O     0.55224   0.18336   0.24313   0.05133  Uani   1.00
O29    O     0.05224   0.31664   0.75687   0.05133  Uani   1.00
O30    O     0.05224   0.81664   0.25687   0.05133  Uani   1.00
O31    O     0.55224   0.31664   0.25687   0.05133  Uani   1.00
O32    O     0.55224   0.81664   0.75687   0.05133  Uani   1.00
O33    O     0.24313   0.94776   0.31664   0.05133  Uani   1.00
O34    O     0.24313   0.44776   0.81664   0.05133  Uani   1.00
O35    O     0.74313   0.94776   0.81664   0.05133  Uani   1.00
O36    O     0.74313   0.44776   0.31664   0.05133  Uani   1.00
O37    O     0.75687   0.94776   0.68336   0.05133  Uani   1.00
O38    O     0.75687   0.44776   0.18336   0.05133  Uani   1.00
O39    O     0.25687   0.94776   0.18336   0.05133  Uani   1.00
O40    O     0.25687   0.44776   0.68336   0.05133  Uani   1.00
O41    O     0.24313   0.05224   0.68336   0.05133  Uani   1.00
O42    O     0.24313   0.55224   0.18336   0.05133  Uani   1.00
O43    O     0.74313   0.05224   0.18336   0.05133  Uani   1.00
O44    O     0.74313   0.55224   0.68336   0.05133  Uani   1.00
O45    O     0.75687   0.05224   0.31664   0.05133  Uani   1.00
O46    O     0.75687   0.55224   0.81664   0.05133  Uani   1.00
O47    O     0.25687   0.05224   0.81664   0.05133  Uani   1.00
O48    O     0.25687   0.55224   0.31664   0.05133  Uani   1.00
O49    O     0.24313   0.31664   0.05224   0.05133  Uani   1.00
O50    O     0.24313   0.81664   0.55224   0.05133  Uani   1.00
O51    O     0.74313   0.31664   0.55224   0.05133  Uani   1.00
O52    O     0.74313   0.81664   0.05224   0.05133  Uani   1.00
O53    O     0.75687   0.68336   0.05224   0.05133  Uani   1.00
O54    O     0.75687   0.18336   0.55224   0.05133  Uani   1.00
O55    O     0.25687   0.68336   0.55224   0.05133  Uani   1.00
O56    O     0.25687   0.18336   0.05224   0.05133  Uani   1.00
O57    O     0.24313   0.68336   0.94776   0.05133  Uani   1.00
O58    O     0.24313   0.18336   0.44776   0.05133  Uani   1.00
O59    O     0.74313   0.68336   0.44776   0.05133  Uani   1.00
O60    O     0.74313   0.18336   0.94776   0.05133  Uani   1.00
O61    O     0.75687   0.31664   0.94776   0.05133  Uani   1.00
O62    O     0.75687   0.81664   0.44776   0.05133  Uani   1.00
O63    O     0.25687   0.31664   0.44776   0.05133  Uani   1.00
O64    O     0.25687   0.81664   0.94776   0.05133  Uani   1.00
O65    O     0.31664   0.94776   0.75687   0.05133  Uani   1.00
O66    O     0.31664   0.44776   0.25687   0.05133  Uani   1.00
O67    O     0.81664   0.94776   0.25687   0.05133  Uani   1.00
O68    O     0.81664   0.44776   0.75687   0.05133  Uani   1.00
O69    O     0.68336   0.94776   0.24313   0.05133  Uani   1.00
O70    O     0.68336   0.44776   0.74313   0.05133  Uani   1.00
O71    O     0.18336   0.94776   0.74313   0.05133  Uani   1.00
O72    O     0.18336   0.44776   0.24313   0.05133  Uani   1.00
O73    O     0.68336   0.05224   0.75687   0.05133  Uani   1.00
O74    O     0.68336   0.55224   0.25687   0.05133  Uani   1.00
O75    O     0.18336   0.05224   0.25687   0.05133  Uani   1.00
O76    O     0.18336   0.55224   0.75687   0.05133  Uani   1.00
O77    O     0.31664   0.05224   0.24313   0.05133  Uani   1.00
O78    O     0.31664   0.55224   0.74313   0.05133  Uani   1.00
O79    O     0.81664   0.05224   0.74313   0.05133  Uani   1.00
O80    O     0.81664   0.55224   0.24313   0.05133  Uani   1.00
O81    O     0.94776   0.24313   0.68336   0.05133  Uani   1.00
O82    O     0.94776   0.74313   0.18336   0.05133  Uani   1.00
O83    O     0.44776   0.24313   0.18336   0.05133  Uani   1.00
O84    O     0.44776   0.74313   0.68336   0.05133  Uani   1.00
O85    O     0.94776   0.75687   0.31664   0.05133  Uani   1.00
O86    O     0.94776   0.25687   0.81664   0.05133  Uani   1.00
O87    O     0.44776   0.75687   0.81664   0.05133  Uani   1.00
O88    O     0.44776   0.25687   0.31664   0.05133  Uani   1.00
O89    O     0.05224   0.24313   0.31664   0.05133  Uani   1.00
O90    O     0.05224   0.74313   0.81664   0.05133  Uani   1.00
O91    O     0.55224   0.24313   0.81664   0.05133  Uani   1.00
O92    O     0.55224   0.74313   0.31664   0.05133  Uani   1.00
O93    O     0.05224   0.75687   0.68336   0.05133  Uani   1.00
O94    O     0.05224   0.25687   0.18336   0.05133  Uani   1.00
O95    O     0.55224   0.75687   0.18336   0.05133  Uani   1.00
O96    O     0.55224   0.25687   0.68336   0.05133  Uani   1.00
O97    O     0.68336   0.75687   0.05224   0.05133  Uani   1.00
O98    O     0.68336   0.25687   0.55224   0.05133  Uani   1.00
O99    O     0.18336   0.75687   0.55224   0.05133  Uani   1.00
O100   O     0.18336   0.25687   0.05224   0.05133  Uani   1.00
O101   O     0.31664   0.24313   0.05224   0.05133  Uani   1.00
O102   O     0.31664   0.74313   0.55224   0.05133  Uani   1.00
O103   O     0.81664   0.24313   0.55224   0.05133  Uani   1.00
O104   O     0.81664   0.74313   0.05224   0.05133  Uani   1.00
O105   O     0.31664   0.75687   0.94776   0.05133  Uani   1.00
O106   O     0.31664   0.25687   0.44776   0.05133  Uani   1.00
O107   O     0.81664   0.75687   0.44776   0.05133  Uani   1.00
O108   O     0.81664   0.25687   0.94776   0.05133  Uani   1.00
O109   O     0.68336   0.24313   0.94776   0.05133  Uani   1.00
O110   O     0.68336   0.74313   0.44776   0.05133  Uani   1.00
O111   O     0.18336   0.24313   0.44776   0.05133  Uani   1.00
O112   O     0.18336   0.74313   0.94776   0.05133  Uani   1.00
O113   O     0.05224   0.68336   0.75687   0.05133  Uani   1.00
O114   O     0.05224   0.18336   0.25687   0.05133  Uani   1.00
O115   O     0.55224   0.68336   0.25687   0.05133  Uani   1.00
O116   O     0.55224   0.18336   0.75687   0.05133  Uani   1.00
O117   O     0.05224   0.31664   0.24313   0.05133  Uani   1.00
O118   O     0.05224   0.81664   0.74313   0.05133  Uani   1.00
O119   O     0.55224   0.31664   0.74313   0.05133  Uani   1.00
O120   O     0.55224   0.81664   0.24313   0.05133  Uani   1.00
O121   O     0.94776   0.31664   0.75687   0.05133  Uani   1.00
O122   O     0.94776   0.81664   0.25687   0.05133  Uani   1.00
O123   O     0.44776   0.31664   0.25687   0.05133  Uani   1.00
O124   O     0.44776   0.81664   0.75687   0.05133  Uani   1.00
O125   O     0.94776   0.68336   0.24313   0.05133  Uani   1.00
O126   O     0.94776   0.18336   0.74313   0.05133  Uani   1.00
O127   O     0.44776   0.68336   0.74313   0.05133  Uani   1.00
O128   O     0.44776   0.18336   0.24313   0.05133  Uani   1.00
O129   O     0.75687   0.05224   0.68336   0.05133  Uani   1.00
O130   O     0.75687   0.55224   0.18336   0.05133  Uani   1.00
O131   O     0.25687   0.05224   0.18336   0.05133  Uani   1.00
O132   O     0.25687   0.55224   0.68336   0.05133  Uani   1.00
O133   O     0.24313   0.05224   0.31664   0.05133  Uani   1.00
O134   O     0.24313   0.55224   0.81664   0.05133  Uani   1.00
O135   O     0.74313   0.05224   0.81664   0.05133  Uani   1.00
O136   O     0.74313   0.55224   0.31664   0.05133  Uani   1.00
O137   O     0.75687   0.94776   0.31664   0.05133  Uani   1.00
O138   O     0.75687   0.44776   0.81664   0.05133  Uani   1.00
O139   O     0.25687   0.94776   0.81664   0.05133  Uani   1.00
O140   O     0.25687   0.44776   0.31664   0.05133  Uani   1.00
O141   O     0.24313   0.94776   0.68336   0.05133  Uani   1.00
O142   O     0.24313   0.44776   0.18336   0.05133  Uani   1.00
O143   O     0.74313   0.94776   0.18336   0.05133  Uani   1.00
O144   O     0.74313   0.44776   0.68336   0.05133  Uani   1.00
O145   O     0.75687   0.68336   0.94776   0.05133  Uani   1.00
O146   O     0.75687   0.18336   0.44776   0.05133  Uani   1.00
O147   O     0.25687   0.68336   0.44776   0.05133  Uani   1.00
O148   O     0.25687   0.18336   0.94776   0.05133  Uani   1.00
O149   O     0.24313   0.31664   0.94776   0.05133  Uani   1.00
O150   O     0.24313   0.81664   0.44776   0.05133  Uani   1.00
O151   O     0.74313   0.31664   0.44776   0.05133  Uani   1.00
O152   O     0.74313   0.81664   0.94776   0.05133  Uani   1.00
O153   O     0.75687   0.31664   0.05224   0.05133  Uani   1.00
O154   O     0.75687   0.81664   0.55224   0.05133  Uani   1.00
O155   O     0.25687   0.31664   0.55224   0.05133  Uani   1.00
O156   O     0.25687   0.81664   0.05224   0.05133  Uani   1.00
O157   O     0.24313   0.68336   0.05224   0.05133  Uani   1.00
O158   O     0.24313   0.18336   0.55224   0.05133  Uani   1.00
O159   O     0.74313   0.68336   0.55224   0.05133  Uani   1.00
O160   O     0.74313   0.18336   0.05224   0.05133  Uani   1.00
O161   O     0.68336   0.05224   0.24313   0.05133  Uani   1.00
O162   O     0.68336   0.55224   0.74313   0.05133  Uani   1.00
O163   O     0.18336   0.05224   0.74313   0.05133  Uani   1.00
O164   O     0.18336   0.55224   0.24313   0.05133  Uani   1.00
O165   O     0.31664   0.05224   0.75687   0.05133  Uani   1.00
O166   O     0.31664   0.55224   0.25687   0.05133  Uani   1.00
O167   O     0.81664   0.05224   0.25687   0.05133  Uani   1.00
O168   O     0.81664   0.55224   0.75687   0.05133  Uani   1.00
O169   O     0.31664   0.94776   0.24313   0.05133  Uani   1.00
O170   O     0.31664   0.44776   0.74313   0.05133  Uani   1.00
O171   O     0.81664   0.94776   0.74313   0.05133  Uani   1.00
O172   O     0.81664   0.44776   0.24313   0.05133  Uani   1.00
O173   O     0.68336   0.94776   0.75687   0.05133  Uani   1.00
O174   O     0.68336   0.44776   0.25687   0.05133  Uani   1.00
O175   O     0.18336   0.94776   0.25687   0.05133  Uani   1.00
O176   O     0.18336   0.44776   0.75687   0.05133  Uani   1.00
O177   O     0.05224   0.75687   0.31664   0.05133  Uani   1.00
O178   O     0.05224   0.25687   0.81664   0.05133  Uani   1.00
O179   O     0.55224   0.75687   0.81664   0.05133  Uani   1.00
O180   O     0.55224   0.25687   0.31664   0.05133  Uani   1.00
O181   O     0.05224   0.24313   0.68336   0.05133  Uani   1.00
O182   O     0.05224   0.74313   0.18336   0.05133  Uani   1.00
O183   O     0.55224   0.24313   0.18336   0.05133  Uani   1.00
O184   O     0.55224   0.74313   0.68336   0.05133  Uani   1.00
O185   O     0.94776   0.75687   0.68336   0.05133  Uani   1.00
O186   O     0.94776   0.25687   0.18336   0.05133  Uani   1.00
O187   O     0.44776   0.75687   0.18336   0.05133  Uani   1.00
O188   O     0.44776   0.25687   0.68336   0.05133  Uani   1.00
O189   O     0.94776   0.24313   0.31664   0.05133  Uani   1.00
O190   O     0.94776   0.74313   0.81664   0.05133  Uani   1.00
O191   O     0.44776   0.24313   0.81664   0.05133  Uani   1.00
O192   O     0.44776   0.74313   0.31664   0.05133  Uani   1.00
Cu193  Cu    0.28527   0.28527   0.00000   0.03130  Uani   1.00
Cu194  Cu    0.28527   0.78527   0.50000   0.03130  Uani   1.00
Cu195  Cu    0.78527   0.28527   0.50000   0.03130  Uani   1.00
Cu196  Cu    0.78527   0.78527   0.00000   0.03130  Uani   1.00
Cu197  Cu    0.71473   0.71473   0.00000   0.03130  Uani   1.00
Cu198  Cu    0.71473   0.21473   0.50000   0.03130  Uani   1.00
Cu199  Cu    0.21473   0.71473   0.50000   0.03130  Uani   1.00
Cu200  Cu    0.21473   0.21473   0.00000   0.03130  Uani   1.00
Cu201  Cu    0.71473   0.28527   0.00000   0.03130  Uani   1.00
Cu202  Cu    0.71473   0.78527   0.50000   0.03130  Uani   1.00
Cu203  Cu    0.21473   0.28527   0.50000   0.03130  Uani   1.00
Cu204  Cu    0.21473   0.78527   0.00000   0.03130  Uani   1.00
Cu205  Cu    0.28527   0.71473   0.00000   0.03130  Uani   1.00
Cu206  Cu    0.28527   0.21473   0.50000   0.03130  Uani   1.00
Cu207  Cu    0.78527   0.71473   0.50000   0.03130  Uani   1.00
Cu208  Cu    0.78527   0.21473   0.00000   0.03130  Uani   1.00
Cu209  Cu    0.00000   0.28527   0.28527   0.03130  Uani   1.00
Cu210  Cu    0.00000   0.78527   0.78527   0.03130  Uani   1.00
Cu211  Cu    0.50000   0.28527   0.78527   0.03130  Uani   1.00
Cu212  Cu    0.50000   0.78527   0.28527   0.03130  Uani   1.00
Cu213  Cu    0.00000   0.71473   0.71473   0.03130  Uani   1.00
Cu214  Cu    0.00000   0.21473   0.21473   0.03130  Uani   1.00
Cu215  Cu    0.50000   0.71473   0.21473   0.03130  Uani   1.00
Cu216  Cu    0.50000   0.21473   0.71473   0.03130  Uani   1.00
Cu217  Cu    0.00000   0.71473   0.28527   0.03130  Uani   1.00
Cu218  Cu    0.00000   0.21473   0.78527   0.03130  Uani   1.00
Cu219  Cu    0.50000   0.71473   0.78527   0.03130  Uani   1.00
Cu220  Cu    0.50000   0.21473   0.28527   0.03130  Uani   1.00
Cu221  Cu    0.00000   0.28527   0.71473   0.03130  Uani   1.00
Cu222  Cu    0.00000   0.78527   0.21473   0.03130  Uani   1.00
Cu223  Cu    0.50000   0.28527   0.21473   0.03130  Uani   1.00
Cu224  Cu    0.50000   0.78527   0.71473   0.03130  Uani   1.00
Cu225  Cu    0.28527   0.00000   0.28527   0.03130  Uani   1.00
Cu226  Cu    0.28527   0.50000   0.78527   0.03130  Uani   1.00
Cu227  Cu    0.78527   0.00000   0.78527   0.03130  Uani   1.00
Cu228  Cu    0.78527   0.50000   0.28527   0.03130  Uani   1.00
Cu229  Cu    0.71473   0.00000   0.71473   0.03130  Uani   1.00
Cu230  Cu    0.71473   0.50000   0.21473   0.03130  Uani   1.00
Cu231  Cu    0.21473   0.00000   0.21473   0.03130  Uani   1.00
Cu232  Cu    0.21473   0.50000   0.71473   0.03130  Uani   1.00
Cu233  Cu    0.28527   0.00000   0.71473   0.03130  Uani   1.00
Cu234  Cu    0.28527   0.50000   0.21473   0.03130  Uani   1.00
Cu235  Cu    0.78527   0.00000   0.21473   0.03130  Uani   1.00
Cu236  Cu    0.78527   0.50000   0.71473   0.03130  Uani   1.00
Cu237  Cu    0.71473   0.00000   0.28527   0.03130  Uani   1.00
Cu238  Cu    0.71473   0.50000   0.78527   0.03130  Uani   1.00
Cu239  Cu    0.21473   0.00000   0.78527   0.03130  Uani   1.00
Cu240  Cu    0.21473   0.50000   0.28527   0.03130  Uani   1.00
C241   C     0.32200   0.17800   0.88700   0.04033  Uani   1.00
C242   C     0.29680   0.20320   0.93130   0.03933  Uani   1.00
C243   C     0.32200   0.67800   0.38700   0.04033  Uani   1.00
C244   C     0.29680   0.70320   0.43130   0.03933  Uani   1.00
C245   C     0.67800   0.82200   0.88700   0.04033  Uani   1.00
C246   C     0.70320   0.79680   0.93130   0.03933  Uani   1.00
C247   C     0.67800   0.32200   0.38700   0.04033  Uani   1.00
C248   C     0.70320   0.29680   0.43130   0.03933  Uani   1.00
C249   C     0.17800   0.32200   0.88700   0.04033  Uani   1.00
C250   C     0.20320   0.29680   0.93130   0.03933  Uani   1.00
C251   C     0.67800   0.17800   0.11300   0.04033  Uani   1.00
C252   C     0.70320   0.20320   0.06870   0.03933  Uani   1.00
C253   C     0.67800   0.67800   0.61300   0.04033  Uani   1.00
C254   C     0.70320   0.70320   0.56870   0.03933  Uani   1.00
C255   C     0.17800   0.17800   0.61300   0.04033  Uani   1.00
C256   C     0.20320   0.20320   0.56870   0.03933  Uani   1.00
C257   C     0.32200   0.82200   0.11300   0.04033  Uani   1.00
C258   C     0.29680   0.79680   0.06870   0.03933  Uani   1.00
C259   C     0.32200   0.32200   0.61300   0.04033  Uani   1.00
C260   C     0.29680   0.29680   0.56870   0.03933  Uani   1.00
C261   C     0.88700   0.32200   0.17800   0.04033  Uani   1.00
C262   C     0.93130   0.29680   0.20320   0.03933  Uani   1.00
C263   C     0.38700   0.32200   0.67800   0.04033  Uani   1.00
C264   C     0.43130   0.29680   0.70320   0.03933  Uani   1.00
C265   C     0.88700   0.67800   0.82200   0.04033  Uani   1.00
C266   C     0.93130   0.70320   0.79680   0.03933  Uani   1.00
C267   C     0.88700   0.17800   0.32200   0.04033  Uani   1.00
C268   C     0.93130   0.20320   0.29680   0.03933  Uani   1.00
C269   C     0.38700   0.67800   0.32200   0.04033  Uani   1.00
C270   C     0.43130   0.70320   0.29680   0.03933  Uani   1.00
C271   C     0.11300   0.67800   0.17800   0.04033  Uani   1.00
C272   C     0.06870   0.70320   0.20320   0.03933  Uani   1.00
C273   C     0.61300   0.67800   0.67800   0.04033  Uani   1.00
C274   C     0.56870   0.70320   0.70320   0.03933  Uani   1.00
C275   C     0.61300   0.17800   0.17800   0.04033  Uani   1.00
C276   C     0.56870   0.20320   0.20320   0.03933  Uani   1.00
C277   C     0.11300   0.32200   0.82200   0.04033  Uani   1.00
C278   C     0.06870   0.29680   0.79680   0.03933  Uani   1.00
C279   C     0.61300   0.32200   0.32200   0.04033  Uani   1.00
C280   C     0.56870   0.29680   0.29680   0.03933  Uani   1.00
C281   C     0.17800   0.88700   0.32200   0.04033  Uani   1.00
C282   C     0.20320   0.93130   0.29680   0.03933  Uani   1.00
C283   C     0.17800   0.38700   0.82200   0.04033  Uani   1.00
C284   C     0.20320   0.43130   0.79680   0.03933  Uani   1.00
C285   C     0.82200   0.88700   0.67800   0.04033  Uani   1.00
C286   C     0.79680   0.93130   0.70320   0.03933  Uani   1.00
C287   C     0.82200   0.38700   0.17800   0.04033  Uani   1.00
C288   C     0.79680   0.43130   0.20320   0.03933  Uani   1.00
C289   C     0.32200   0.88700   0.17800   0.04033  Uani   1.00
C290   C     0.29680   0.93130   0.20320   0.03933  Uani   1.00
C291   C     0.17800   0.11300   0.67800   0.04033  Uani   1.00
C292   C     0.20320   0.06870   0.70320   0.03933  Uani   1.00
C293   C     0.17800   0.61300   0.17800   0.04033  Uani   1.00
C294   C     0.20320   0.56870   0.20320   0.03933  Uani   1.00
C295   C     0.82200   0.11300   0.32200   0.04033  Uani   1.00
C296   C     0.79680   0.06870   0.29680   0.03933  Uani   1.00
C297   C     0.82200   0.61300   0.82200   0.04033  Uani   1.00
C298   C     0.79680   0.56870   0.79680   0.03933  Uani   1.00
C299   C     0.32200   0.61300   0.32200   0.04033  Uani   1.00
C300   C     0.29680   0.56870   0.29680   0.03933  Uani   1.00
C301   C     0.17800   0.32200   0.11300   0.04033  Uani   1.00
C302   C     0.20320   0.29680   0.06870   0.03933  Uani   1.00
C303   C     0.17800   0.82200   0.61300   0.04033  Uani   1.00
C304   C     0.20320   0.79680   0.56870   0.03933  Uani   1.00
C305   C     0.82200   0.67800   0.11300   0.04033  Uani   1.00
C306   C     0.79680   0.70320   0.06870   0.03933  Uani   1.00
C307   C     0.82200   0.17800   0.61300   0.04033  Uani   1.00
C308   C     0.79680   0.20320   0.56870   0.03933  Uani   1.00
C309   C     0.32200   0.17800   0.11300   0.04033  Uani   1.00
C310   C     0.29680   0.20320   0.06870   0.03933  Uani   1.00
C311   C     0.17800   0.67800   0.88700   0.04033  Uani   1.00
C312   C     0.20320   0.70320   0.93130   0.03933  Uani   1.00
C313   C     0.17800   0.17800   0.38700   0.04033  Uani   1.00
C314   C     0.20320   0.20320   0.43130   0.03933  Uani   1.00
C315   C     0.82200   0.32200   0.88700   0.04033  Uani   1.00
C316   C     0.79680   0.29680   0.93130   0.03933  Uani   1.00
C317   C     0.82200   0.82200   0.38700   0.04033  Uani   1.00
C318   C     0.79680   0.79680   0.43130   0.03933  Uani   1.00
C319   C     0.32200   0.32200   0.38700   0.04033  Uani   1.00
C320   C     0.29680   0.29680   0.43130   0.03933  Uani   1.00
C321   C     0.32200   0.88700   0.82200   0.04033  Uani   1.00
C322   C     0.29680   0.93130   0.79680   0.03933  Uani   1.00
C323   C     0.32200   0.38700   0.32200   0.04033  Uani   1.00
C324   C     0.29680   0.43130   0.29680   0.03933  Uani   1.00
C325   C     0.67800   0.88700   0.17800   0.04033  Uani   1.00
C326   C     0.70320   0.93130   0.20320   0.03933  Uani   1.00
C327   C     0.67800   0.38700   0.67800   0.04033  Uani   1.00
C328   C     0.70320   0.43130   0.70320   0.03933  Uani   1.00
C329   C     0.17800   0.38700   0.17800   0.04033  Uani   1.00
C330   C     0.20320   0.43130   0.20320   0.03933  Uani   1.00
C331   C     0.67800   0.11300   0.82200   0.04033  Uani   1.00
C332   C     0.70320   0.06870   0.79680   0.03933  Uani   1.00
C333   C     0.67800   0.61300   0.32200   0.04033  Uani   1.00
C334   C     0.70320   0.56870   0.29680   0.03933  Uani   1.00
C335   C     0.17800   0.11300   0.32200   0.04033  Uani   1.00
C336   C     0.20320   0.06870   0.29680   0.03933  Uani   1.00
C337   C     0.32200   0.11300   0.17800   0.04033  Uani   1.00
C338   C     0.29680   0.06870   0.20320   0.03933  Uani   1.00
C339   C     0.32200   0.61300   0.67800   0.04033  Uani   1.00
C340   C     0.29680   0.56870   0.70320   0.03933  Uani   1.00
C341   C     0.88700   0.17800   0.67800   0.04033  Uani   1.00
C342   C     0.93130   0.20320   0.70320   0.03933  Uani   1.00
C343   C     0.38700   0.17800   0.17800   0.04033  Uani   1.00
C344   C     0.43130   0.20320   0.20320   0.03933  Uani   1.00
C345   C     0.88700   0.82200   0.32200   0.04033  Uani   1.00
C346   C     0.93130   0.79680   0.29680   0.03933  Uani   1.00
C347   C     0.38700   0.82200   0.82200   0.04033  Uani   1.00
C348   C     0.43130   0.79680   0.79680   0.03933  Uani   1.00
C349   C     0.38700   0.32200   0.32200   0.04033  Uani   1.00
C350   C     0.43130   0.29680   0.29680   0.03933  Uani   1.00
C351   C     0.11300   0.17800   0.32200   0.04033  Uani   1.00
C352   C     0.06870   0.20320   0.29680   0.03933  Uani   1.00
C353   C     0.61300   0.17800   0.82200   0.04033  Uani   1.00
C354   C     0.56870   0.20320   0.79680   0.03933  Uani   1.00
C355   C     0.11300   0.82200   0.67800   0.04033  Uani   1.00
C356   C     0.06870   0.79680   0.70320   0.03933  Uani   1.00
C357   C     0.11300   0.32200   0.17800   0.04033  Uani   1.00
C358   C     0.06870   0.29680   0.20320   0.03933  Uani   1.00
C359   C     0.61300   0.82200   0.17800   0.04033  Uani   1.00
C360   C     0.56870   0.79680   0.20320   0.03933  Uani   1.00
C361   C     0.67800   0.82200   0.11300   0.04033  Uani   1.00
C362   C     0.70320   0.79680   0.06870   0.03933  Uani   1.00
C363   C     0.67800   0.32200   0.61300   0.04033  Uani   1.00
C364   C     0.70320   0.29680   0.56870   0.03933  Uani   1.00
C365   C     0.32200   0.67800   0.61300   0.04033  Uani   1.00
C366   C     0.29680   0.70320   0.56870   0.03933  Uani   1.00
C367   C     0.32200   0.82200   0.88700   0.04033  Uani   1.00
C368   C     0.29680   0.79680   0.93130   0.03933  Uani   1.00
C369   C     0.67800   0.17800   0.88700   0.04033  Uani   1.00
C370   C     0.70320   0.20320   0.93130   0.03933  Uani   1.00
C371   C     0.67800   0.67800   0.38700   0.04033  Uani   1.00
C372   C     0.70320   0.70320   0.43130   0.03933  Uani   1.00
C373   C     0.11300   0.67800   0.82200   0.04033  Uani   1.00
C374   C     0.06870   0.70320   0.79680   0.03933  Uani   1.00
C375   C     0.61300   0.67800   0.32200   0.04033  Uani   1.00
C376   C     0.56870   0.70320   0.29680   0.03933  Uani   1.00
C377   C     0.61300   0.32200   0.67800   0.04033  Uani   1.00
C378   C     0.56870   0.29680   0.70320   0.03933  Uani   1.00
C379   C     0.88700   0.32200   0.82200   0.04033  Uani   1.00
C380   C     0.93130   0.29680   0.79680   0.03933  Uani   1.00
C381   C     0.88700   0.67800   0.17800   0.04033  Uani   1.00
C382   C     0.93130   0.70320   0.20320   0.03933  Uani   1.00
C383   C     0.38700   0.67800   0.67800   0.04033  Uani   1.00
C384   C     0.43130   0.70320   0.70320   0.03933  Uani   1.00
C385   C     0.82200   0.11300   0.67800   0.04033  Uani   1.00
C386   C     0.79680   0.06870   0.70320   0.03933  Uani   1.00
C387   C     0.82200   0.61300   0.17800   0.04033  Uani   1.00
C388   C     0.79680   0.56870   0.20320   0.03933  Uani   1.00
C389   C     0.17800   0.61300   0.82200   0.04033  Uani   1.00
C390   C     0.20320   0.56870   0.79680   0.03933  Uani   1.00
C391   C     0.82200   0.88700   0.32200   0.04033  Uani   1.00
C392   C     0.79680   0.93130   0.29680   0.03933  Uani   1.00
C393   C     0.82200   0.38700   0.82200   0.04033  Uani   1.00
C394   C     0.79680   0.43130   0.79680   0.03933  Uani   1.00
C395   C     0.17800   0.88700   0.67800   0.04033  Uani   1.00
C396   C     0.20320   0.93130   0.70320   0.03933  Uani   1.00
C397   C     0.82200   0.67800   0.88700   0.04033  Uani   1.00
C398   C     0.79680   0.70320   0.93130   0.03933  Uani   1.00
C399   C     0.82200   0.17800   0.38700   0.04033  Uani   1.00
C400   C     0.79680   0.20320   0.43130   0.03933  Uani   1.00
C401   C     0.17800   0.82200   0.38700   0.04033  Uani   1.00
C402   C     0.20320   0.79680   0.43130   0.03933  Uani   1.00
C403   C     0.82200   0.32200   0.11300   0.04033  Uani   1.00
C404   C     0.79680   0.29680   0.06870   0.03933  Uani   1.00
C405   C     0.82200   0.82200   0.61300   0.04033  Uani   1.00
C406   C     0.79680   0.79680   0.56870   0.03933  Uani   1.00
C407   C     0.17800   0.67800   0.11300   0.04033  Uani   1.00
C408   C     0.20320   0.70320   0.06870   0.03933  Uani   1.00
C409   C     0.67800   0.11300   0.17800   0.04033  Uani   1.00
C410   C     0.70320   0.06870   0.20320   0.03933  Uani   1.00
C411   C     0.67800   0.61300   0.67800   0.04033  Uani   1.00
C412   C     0.70320   0.56870   0.70320   0.03933  Uani   1.00
C413   C     0.32200   0.11300   0.82200   0.04033  Uani   1.00
C414   C     0.29680   0.06870   0.79680   0.03933  Uani   1.00
C415   C     0.32200   0.38700   0.67800   0.04033  Uani   1.00
C416   C     0.29680   0.43130   0.70320   0.03933  Uani   1.00
C417   C     0.67800   0.88700   0.82200   0.04033  Uani   1.00
C418   C     0.70320   0.93130   0.79680   0.03933  Uani   1.00
C419   C     0.67800   0.38700   0.32200   0.04033  Uani   1.00
C420   C     0.70320   0.43130   0.29680   0.03933  Uani   1.00
C421   C     0.11300   0.82200   0.32200   0.04033  Uani   1.00
C422   C     0.06870   0.79680   0.29680   0.03933  Uani   1.00
C423   C     0.61300   0.82200   0.82200   0.04033  Uani   1.00
C424   C     0.56870   0.79680   0.79680   0.03933  Uani   1.00
C425   C     0.11300   0.17800   0.67800   0.04033  Uani   1.00
C426   C     0.06870   0.20320   0.70320   0.03933  Uani   1.00
C427   C     0.88700   0.82200   0.67800   0.04033  Uani   1.00
C428   C     0.93130   0.79680   0.70320   0.03933  Uani   1.00
C429   C     0.38700   0.82200   0.17800   0.04033  Uani   1.00
C430   C     0.43130   0.79680   0.20320   0.03933  Uani   1.00
C431   C     0.38700   0.17800   0.82200   0.04033  Uani   1.00
C432   C     0.43130   0.20320   0.79680   0.03933  Uani   1.00
C433   C     0.36550   0.19940   0.86550   0.04200  Uani   1.00
H434   H     0.38020   0.22800   0.88020   0.05000  Uiso   1.00
C435   C     0.36550   0.69940   0.36550   0.04200  Uani   1.00
H436   H     0.38020   0.72800   0.38020   0.05000  Uiso   1.00
C437   C     0.63450   0.80060   0.86550   0.04200  Uani   1.00
H438   H     0.61980   0.77200   0.88020   0.05000  Uiso   1.00
C439   C     0.63450   0.30060   0.36550   0.04200  Uani   1.00
H440   H     0.61980   0.27200   0.38020   0.05000  Uiso   1.00
C441   C     0.13450   0.80060   0.36550   0.04200  Uani   1.00
H442   H     0.11980   0.77200   0.38020   0.05000  Uiso   1.00
C443   C     0.63450   0.19940   0.13450   0.04200  Uani   1.00
H444   H     0.61980   0.22800   0.11980   0.05000  Uiso   1.00
C445   C     0.63450   0.69940   0.63450   0.04200  Uani   1.00
H446   H     0.61980   0.72800   0.61980   0.05000  Uiso   1.00
C447   C     0.13450   0.69940   0.13450   0.04200  Uani   1.00
H448   H     0.11980   0.72800   0.11980   0.05000  Uiso   1.00
C449   C     0.36550   0.80060   0.13450   0.04200  Uani   1.00
H450   H     0.38020   0.77200   0.11980   0.05000  Uiso   1.00
C451   C     0.36550   0.30060   0.63450   0.04200  Uani   1.00
H452   H     0.38020   0.27200   0.61980   0.05000  Uiso   1.00
C453   C     0.86550   0.36550   0.19940   0.04200  Uani   1.00
H454   H     0.88020   0.38020   0.22800   0.05000  Uiso   1.00
C455   C     0.86550   0.86550   0.69940   0.04200  Uani   1.00
H456   H     0.88020   0.88020   0.72800   0.05000  Uiso   1.00
C457   C     0.36550   0.36550   0.69940   0.04200  Uani   1.00
H458   H     0.38020   0.38020   0.72800   0.05000  Uiso   1.00
C459   C     0.86550   0.63450   0.80060   0.04200  Uani   1.00
H460   H     0.88020   0.61980   0.77200   0.05000  Uiso   1.00
C461   C     0.86550   0.13450   0.30060   0.04200  Uani   1.00
H462   H     0.88020   0.11980   0.27200   0.05000  Uiso   1.00
C463   C     0.36550   0.13450   0.80060   0.04200  Uani   1.00
H464   H     0.38020   0.11980   0.77200   0.05000  Uiso   1.00
C465   C     0.13450   0.63450   0.19940   0.04200  Uani   1.00
H466   H     0.11980   0.61980   0.22800   0.05000  Uiso   1.00
C467   C     0.13450   0.13450   0.69940   0.04200  Uani   1.00
H468   H     0.11980   0.11980   0.72800   0.05000  Uiso   1.00
C469   C     0.13450   0.36550   0.80060   0.04200  Uani   1.00
H470   H     0.11980   0.38020   0.77200   0.05000  Uiso   1.00
C471   C     0.13450   0.86550   0.30060   0.04200  Uani   1.00
H472   H     0.11980   0.88020   0.27200   0.05000  Uiso   1.00
C473   C     0.19940   0.86550   0.36550   0.04200  Uani   1.00
H474   H     0.22800   0.88020   0.38020   0.05000  Uiso   1.00
C475   C     0.69940   0.86550   0.86550   0.04200  Uani   1.00
H476   H     0.72800   0.88020   0.88020   0.05000  Uiso   1.00
C477   C     0.69940   0.36550   0.36550   0.04200  Uani   1.00
H478   H     0.72800   0.38020   0.38020   0.05000  Uiso   1.00
C479   C     0.80060   0.86550   0.63450   0.04200  Uani   1.00
H480   H     0.77200   0.88020   0.61980   0.05000  Uiso   1.00
C481   C     0.80060   0.36550   0.13450   0.04200  Uani   1.00
H482   H     0.77200   0.38020   0.11980   0.05000  Uiso   1.00
C483   C     0.30060   0.86550   0.13450   0.04200  Uani   1.00
H484   H     0.27200   0.88020   0.11980   0.05000  Uiso   1.00
C485   C     0.19940   0.13450   0.63450   0.04200  Uani   1.00
H486   H     0.22800   0.11980   0.61980   0.05000  Uiso   1.00
C487   C     0.69940   0.13450   0.13450   0.04200  Uani   1.00
H488   H     0.72800   0.11980   0.11980   0.05000  Uiso   1.00
C489   C     0.80060   0.13450   0.36550   0.04200  Uani   1.00
H490   H     0.77200   0.11980   0.38020   0.05000  Uiso   1.00
C491   C     0.30060   0.13450   0.86550   0.04200  Uani   1.00
H492   H     0.27200   0.11980   0.88020   0.05000  Uiso   1.00
C493   C     0.19940   0.36550   0.13450   0.04200  Uani   1.00
H494   H     0.22800   0.38020   0.11980   0.05000  Uiso   1.00
C495   C     0.69940   0.36550   0.63450   0.04200  Uani   1.00
H496   H     0.72800   0.38020   0.61980   0.05000  Uiso   1.00
C497   C     0.80060   0.63450   0.13450   0.04200  Uani   1.00
H498   H     0.77200   0.61980   0.11980   0.05000  Uiso   1.00
C499   C     0.30060   0.63450   0.63450   0.04200  Uani   1.00
H500   H     0.27200   0.61980   0.61980   0.05000  Uiso   1.00
C501   C     0.30060   0.13450   0.13450   0.04200  Uani   1.00
H502   H     0.27200   0.11980   0.11980   0.05000  Uiso   1.00
C503   C     0.19940   0.63450   0.86550   0.04200  Uani   1.00
H504   H     0.22800   0.61980   0.88020   0.05000  Uiso   1.00
C505   C     0.19940   0.13450   0.36550   0.04200  Uani   1.00
H506   H     0.22800   0.11980   0.38020   0.05000  Uiso   1.00
C507   C     0.69940   0.63450   0.36550   0.04200  Uani   1.00
H508   H     0.72800   0.61980   0.38020   0.05000  Uiso   1.00
C509   C     0.80060   0.36550   0.86550   0.04200  Uani   1.00
H510   H     0.77200   0.38020   0.88020   0.05000  Uiso   1.00
C511   C     0.30060   0.36550   0.36550   0.04200  Uani   1.00
H512   H     0.27200   0.38020   0.38020   0.05000  Uiso   1.00
C513   C     0.36550   0.86550   0.80060   0.04200  Uani   1.00
H514   H     0.38020   0.88020   0.77200   0.05000  Uiso   1.00
C515   C     0.36550   0.36550   0.30060   0.04200  Uani   1.00
H516   H     0.38020   0.38020   0.27200   0.05000  Uiso   1.00
C517   C     0.63450   0.86550   0.19940   0.04200  Uani   1.00
H518   H     0.61980   0.88020   0.22800   0.05000  Uiso   1.00
C519   C     0.63450   0.36550   0.69940   0.04200  Uani   1.00
H520   H     0.61980   0.38020   0.72800   0.05000  Uiso   1.00
C521   C     0.13450   0.36550   0.19940   0.04200  Uani   1.00
H522   H     0.11980   0.38020   0.22800   0.05000  Uiso   1.00
C523   C     0.63450   0.13450   0.80060   0.04200  Uani   1.00
H524   H     0.61980   0.11980   0.77200   0.05000  Uiso   1.00
C525   C     0.63450   0.63450   0.30060   0.04200  Uani   1.00
H526   H     0.61980   0.61980   0.27200   0.05000  Uiso   1.00
C527   C     0.13450   0.13450   0.30060   0.04200  Uani   1.00
H528   H     0.11980   0.11980   0.27200   0.05000  Uiso   1.00
C529   C     0.36550   0.13450   0.19940   0.04200  Uani   1.00
H530   H     0.38020   0.11980   0.22800   0.05000  Uiso   1.00
C531   C     0.36550   0.63450   0.69940   0.04200  Uani   1.00
H532   H     0.38020   0.61980   0.72800   0.05000  Uiso   1.00
C533   C     0.86550   0.19940   0.63450   0.04200  Uani   1.00
H534   H     0.88020   0.22800   0.61980   0.05000  Uiso   1.00
C535   C     0.86550   0.69940   0.13450   0.04200  Uani   1.00
H536   H     0.88020   0.72800   0.11980   0.05000  Uiso   1.00
C537   C     0.36550   0.19940   0.13450   0.04200  Uani   1.00
H538   H     0.38020   0.22800   0.11980   0.05000  Uiso   1.00
C539   C     0.86550   0.80060   0.36550   0.04200  Uani   1.00
H540   H     0.88020   0.77200   0.38020   0.05000  Uiso   1.00
C541   C     0.86550   0.30060   0.86550   0.04200  Uani   1.00
H542   H     0.88020   0.27200   0.88020   0.05000  Uiso   1.00
C543   C     0.36550   0.30060   0.36550   0.04200  Uani   1.00
H544   H     0.38020   0.27200   0.38020   0.05000  Uiso   1.00
C545   C     0.13450   0.19940   0.36550   0.04200  Uani   1.00
H546   H     0.11980   0.22800   0.38020   0.05000  Uiso   1.00
C547   C     0.13450   0.69940   0.86550   0.04200  Uani   1.00
H548   H     0.11980   0.72800   0.88020   0.05000  Uiso   1.00
C549   C     0.13450   0.80060   0.63450   0.04200  Uani   1.00
H550   H     0.11980   0.77200   0.61980   0.05000  Uiso   1.00
C551   C     0.13450   0.30060   0.13450   0.04200  Uani   1.00
H552   H     0.11980   0.27200   0.11980   0.05000  Uiso   1.00
C553   C     0.63450   0.80060   0.13450   0.04200  Uani   1.00
H554   H     0.61980   0.77200   0.11980   0.05000  Uiso   1.00
C555   C     0.63450   0.30060   0.63450   0.04200  Uani   1.00
H556   H     0.61980   0.27200   0.61980   0.05000  Uiso   1.00
C557   C     0.36550   0.69940   0.63450   0.04200  Uani   1.00
H558   H     0.38020   0.72800   0.61980   0.05000  Uiso   1.00
C559   C     0.36550   0.80060   0.86550   0.04200  Uani   1.00
H560   H     0.38020   0.77200   0.88020   0.05000  Uiso   1.00
C561   C     0.63450   0.19940   0.86550   0.04200  Uani   1.00
H562   H     0.61980   0.22800   0.88020   0.05000  Uiso   1.00
C563   C     0.63450   0.69940   0.36550   0.04200  Uani   1.00
H564   H     0.61980   0.72800   0.38020   0.05000  Uiso   1.00
C565   C     0.13450   0.63450   0.80060   0.04200  Uani   1.00
H566   H     0.11980   0.61980   0.77200   0.05000  Uiso   1.00
C567   C     0.13450   0.86550   0.69940   0.04200  Uani   1.00
H568   H     0.11980   0.88020   0.72800   0.05000  Uiso   1.00
C569   C     0.86550   0.36550   0.80060   0.04200  Uani   1.00
H570   H     0.88020   0.38020   0.77200   0.05000  Uiso   1.00
C571   C     0.86550   0.86550   0.30060   0.04200  Uani   1.00
H572   H     0.88020   0.88020   0.27200   0.05000  Uiso   1.00
C573   C     0.86550   0.63450   0.19940   0.04200  Uani   1.00
H574   H     0.88020   0.61980   0.22800   0.05000  Uiso   1.00
C575   C     0.86550   0.13450   0.69940   0.04200  Uani   1.00
H576   H     0.88020   0.11980   0.72800   0.05000  Uiso   1.00
C577   C     0.80060   0.13450   0.63450   0.04200  Uani   1.00
H578   H     0.77200   0.11980   0.61980   0.05000  Uiso   1.00
C579   C     0.69940   0.13450   0.86550   0.04200  Uani   1.00
H580   H     0.72800   0.11980   0.88020   0.05000  Uiso   1.00
C581   C     0.80060   0.86550   0.36550   0.04200  Uani   1.00
H582   H     0.77200   0.88020   0.38020   0.05000  Uiso   1.00
C583   C     0.30060   0.86550   0.86550   0.04200  Uani   1.00
H584   H     0.27200   0.88020   0.88020   0.05000  Uiso   1.00
C585   C     0.19940   0.86550   0.63450   0.04200  Uani   1.00
H586   H     0.22800   0.88020   0.61980   0.05000  Uiso   1.00
C587   C     0.69940   0.86550   0.13450   0.04200  Uani   1.00
H588   H     0.72800   0.88020   0.11980   0.05000  Uiso   1.00
C589   C     0.80060   0.63450   0.86550   0.04200  Uani   1.00
H590   H     0.77200   0.61980   0.88020   0.05000  Uiso   1.00
C591   C     0.30060   0.63450   0.36550   0.04200  Uani   1.00
H592   H     0.27200   0.61980   0.38020   0.05000  Uiso   1.00
C593   C     0.19940   0.36550   0.86550   0.04200  Uani   1.00
H594   H     0.22800   0.38020   0.88020   0.05000  Uiso   1.00
C595   C     0.30060   0.36550   0.63450   0.04200  Uani   1.00
H596   H     0.27200   0.38020   0.61980   0.05000  Uiso   1.00
C597   C     0.19940   0.63450   0.13450   0.04200  Uani   1.00
H598   H     0.22800   0.61980   0.11980   0.05000  Uiso   1.00
C599   C     0.69940   0.63450   0.63450   0.04200  Uani   1.00
H600   H     0.72800   0.61980   0.61980   0.05000  Uiso   1.00
C601   C     0.63450   0.13450   0.19940   0.04200  Uani   1.00
H602   H     0.61980   0.11980   0.22800   0.05000  Uiso   1.00
C603   C     0.63450   0.63450   0.69940   0.04200  Uani   1.00
H604   H     0.61980   0.61980   0.72800   0.05000  Uiso   1.00
C605   C     0.36550   0.63450   0.30060   0.04200  Uani   1.00
H606   H     0.38020   0.61980   0.27200   0.05000  Uiso   1.00
C607   C     0.36550   0.86550   0.19940   0.04200  Uani   1.00
H608   H     0.38020   0.88020   0.22800   0.05000  Uiso   1.00
C609   C     0.63450   0.86550   0.80060   0.04200  Uani   1.00
H610   H     0.61980   0.88020   0.77200   0.05000  Uiso   1.00
C611   C     0.63450   0.36550   0.30060   0.04200  Uani   1.00
H612   H     0.61980   0.38020   0.27200   0.05000  Uiso   1.00
C613   C     0.13450   0.30060   0.86550   0.04200  Uani   1.00
H614   H     0.11980   0.27200   0.88020   0.05000  Uiso   1.00
C615   C     0.13450   0.19940   0.63450   0.04200  Uani   1.00
H616   H     0.11980   0.22800   0.61980   0.05000  Uiso   1.00
C617   C     0.86550   0.80060   0.63450   0.04200  Uani   1.00
H618   H     0.88020   0.77200   0.61980   0.05000  Uiso   1.00
C619   C     0.86550   0.30060   0.13450   0.04200  Uani   1.00
H620   H     0.88020   0.27200   0.11980   0.05000  Uiso   1.00
C621   C     0.86550   0.19940   0.36550   0.04200  Uani   1.00
H622   H     0.88020   0.22800   0.38020   0.05000  Uiso   1.00
C623   C     0.86550   0.69940   0.86550   0.04200  Uani   1.00
H624   H     0.88020   0.72800   0.88020   0.05000  Uiso   1.00
loop_
_atom_site_aniso_label
_atom_site_aniso_U_11
_atom_site_aniso_U_22
_atom_site_aniso_U_33
_atom_site_aniso_U_12
_atom_site_aniso_U_13
_atom_site_aniso_U_23
O1        0.05200   0.05100   0.05100  -0.01600   0.01400  -0.01600
O2        0.05200   0.05100   0.05100  -0.01600   0.01400  -0.01600
O3        0.05200   0.05100   0.05100  -0.01600   0.01400  -0.01600
O4        0.05200   0.05100   0.05100  -0.01600   0.01400  -0.01600
O5        0.05200   0.05100   0.05100  -0.01600  -0.01400   0.01600
O6        0.05200   0.05100   0.05100  -0.01600  -0.01400   0.01600
O7        0.05200   0.05100   0.05100  -0.01600  -0.01400   0.01600
O8        0.05200   0.05100   0.05100  -0.01600  -0.01400   0.01600
O9        0.05200   0.05100   0.05100   0.01600   0.01400   0.01600
O10       0.05200   0.05100   0.05100   0.01600   0.01400   0.01600
O11       0.05200   0.05100   0.05100   0.01600   0.01400   0.01600
O12       0.05200   0.05100   0.05100   0.01600   0.01400   0.01600
O13       0.05200   0.05100   0.05100   0.01600  -0.01400  -0.01600
O14       0.05200   0.05100   0.05100   0.01600  -0.01400  -0.01600
O15       0.05200   0.05100   0.05100   0.01600  -0.01400  -0.01600
O16       0.05200   0.05100   0.05100   0.01600  -0.01400  -0.01600
O17       0.05100   0.05200   0.05100   0.01400  -0.01600  -0.01600
O18       0.05100   0.05200   0.05100   0.01400  -0.01600  -0.01600
O19       0.05100   0.05200   0.05100   0.01400  -0.01600  -0.01600
O20       0.05100   0.05200   0.05100   0.01400  -0.01600  -0.01600
O21       0.05100   0.05200   0.05100  -0.01400   0.01600  -0.01600
O22       0.05100   0.05200   0.05100  -0.01400   0.01600  -0.01600
O23       0.05100   0.05200   0.05100  -0.01400   0.01600  -0.01600
O24       0.05100   0.05200   0.05100  -0.01400   0.01600  -0.01600
O25       0.05100   0.05200   0.05100   0.01400   0.01600   0.01600
O26       0.05100   0.05200   0.05100   0.01400   0.01600   0.01600
O27       0.05100   0.05200   0.05100   0.01400   0.01600   0.01600
O28       0.05100   0.05200   0.05100   0.01400   0.01600   0.01600
O29       0.05100   0.05200   0.05100  -0.01400  -0.01600   0.01600
O30       0.05100   0.05200   0.05100  -0.01400  -0.01600   0.01600
O31       0.05100   0.05200   0.05100  -0.01400  -0.01600   0.01600
O32       0.05100   0.05200   0.05100  -0.01400  -0.01600   0.01600
O33       0.05100   0.05100   0.05200  -0.01600  -0.01600   0.01400
O34       0.05100   0.05100   0.05200  -0.01600  -0.01600   0.01400
O35       0.05100   0.05100   0.05200  -0.01600  -0.01600   0.01400
O36       0.05100   0.05100   0.05200  -0.01600  -0.01600   0.01400
O37       0.05100   0.05100   0.05200   0.01600  -0.01600  -0.01400
O38       0.05100   0.05100   0.05200   0.01600  -0.01600  -0.01400
O39       0.05100   0.05100   0.05200   0.01600  -0.01600  -0.01400
O40       0.05100   0.05100   0.05200   0.01600  -0.01600  -0.01400
O41       0.05100   0.05100   0.05200   0.01600   0.01600   0.01400
O42       0.05100   0.05100   0.05200   0.01600   0.01600   0.01400
O43       0.05100   0.05100   0.05200   0.01600   0.01600   0.01400
O44       0.05100   0.05100   0.05200   0.01600   0.01600   0.01400
O45       0.05100   0.05100   0.05200  -0.01600   0.01600  -0.01400
O46       0.05100   0.05100   0.05200  -0.01600   0.01600  -0.01400
O47       0.05100   0.05100   0.05200  -0.01600   0.01600  -0.01400
O48       0.05100   0.05100   0.05200  -0.01600   0.01600  -0.01400
O49       0.05100   0.05200   0.05100  -0.01600   0.01600  -0.01400
O50       0.05100   0.05200   0.05100  -0.01600   0.01600  -0.01400
O51       0.05100   0.05200   0.05100  -0.01600   0.01600  -0.01400
O52       0.05100   0.05200   0.05100  -0.01600   0.01600  -0.01400
O53       0.05100   0.05200   0.05100  -0.01600  -0.01600   0.01400
O54       0.05100   0.05200   0.05100  -0.01600  -0.01600   0.01400
O55       0.05100   0.05200   0.05100  -0.01600  -0.01600   0.01400
O56       0.05100   0.05200   0.05100  -0.01600  -0.01600   0.01400
O57       0.05100   0.05200   0.05100   0.01600  -0.01600  -0.01400
O58       0.05100   0.05200   0.05100   0.01600  -0.01600  -0.01400
O59       0.05100   0.05200   0.05100   0.01600  -0.01600  -0.01400
O60       0.05100   0.05200   0.05100   0.01600  -0.01600  -0.01400
O61       0.05100   0.05200   0.05100   0.01600   0.01600   0.01400
O62       0.05100   0.05200   0.05100   0.01600   0.01600   0.01400
O63       0.05100   0.05200   0.05100   0.01600   0.01600   0.01400
O64       0.05100   0.05200   0.05100   0.01600   0.01600   0.01400
O65       0.05200   0.05100   0.05100   0.01400   0.01600   0.01600
O66       0.05200   0.05100   0.05100   0.01400   0.01600   0.01600
O67       0.05200   0.05100   0.05100   0.01400   0.01600   0.01600
O68       0.05200   0.05100   0.05100   0.01400   0.01600   0.01600
O69       0.05200   0.05100   0.05100  -0.01400   0.01600  -0.01600
O70       0.05200   0.05100   0.05100  -0.01400   0.01600  -0.01600
O71       0.05200   0.05100   0.05100  -0.01400   0.01600  -0.01600
O72       0.05200   0.05100   0.05100  -0.01400   0.01600  -0.01600
O73       0.05200   0.05100   0.05100   0.01400  -0.01600  -0.01600
O74       0.05200   0.05100   0.05100   0.01400  -0.01600  -0.01600
O75       0.05200   0.05100   0.05100   0.01400  -0.01600  -0.01600
O76       0.05200   0.05100   0.05100   0.01400  -0.01600  -0.01600
O77       0.05200   0.05100   0.05100  -0.01400  -0.01600   0.01600
O78       0.05200   0.05100   0.05100  -0.01400  -0.01600   0.01600
O79       0.05200   0.05100   0.05100  -0.01400  -0.01600   0.01600
O80       0.05200   0.05100   0.05100  -0.01400  -0.01600   0.01600
O81       0.05100   0.05100   0.05200  -0.01600  -0.01400   0.01600
O82       0.05100   0.05100   0.05200  -0.01600  -0.01400   0.01600
O83       0.05100   0.05100   0.05200  -0.01600  -0.01400   0.01600
O84       0.05100   0.05100   0.05200  -0.01600  -0.01400   0.01600
O85       0.05100   0.05100   0.05200   0.01600   0.01400   0.01600
O86       0.05100   0.05100   0.05200   0.01600   0.01400   0.01600
O87       0.05100   0.05100   0.05200   0.01600   0.01400   0.01600
O88       0.05100   0.05100   0.05200   0.01600   0.01400   0.01600
O89       0.05100   0.05100   0.05200   0.01600  -0.01400  -0.01600
O90       0.05100   0.05100   0.05200   0.01600  -0.01400  -0.01600
O91       0.05100   0.05100   0.05200   0.01600  -0.01400  -0.01600
O92       0.05100   0.05100   0.05200   0.01600  -0.01400  -0.01600
O93       0.05100   0.05100   0.05200  -0.01600   0.01400  -0.01600
O94       0.05100   0.05100   0.05200  -0.01600   0.01400  -0.01600
O95       0.05100   0.05100   0.05200  -0.01600   0.01400  -0.01600
O96       0.05100   0.05100   0.05200  -0.01600   0.01400  -0.01600
O97       0.05200   0.05100   0.05100  -0.01600   0.01400  -0.01600
O98       0.05200   0.05100   0.05100  -0.01600   0.01400  -0.01600
O99       0.05200   0.05100   0.05100  -0.01600   0.01400  -0.01600
O100      0.05200   0.05100   0.05100  -0.01600   0.01400  -0.01600
O101      0.05200   0.05100   0.05100  -0.01600  -0.01400   0.01600
O102      0.05200   0.05100   0.05100  -0.01600  -0.01400   0.01600
O103      0.05200   0.05100   0.05100  -0.01600  -0.01400   0.01600
O104      0.05200   0.05100   0.05100  -0.01600  -0.01400   0.01600
O105      0.05200   0.05100   0.05100   0.01600   0.01400   0.01600
O106      0.05200   0.05100   0.05100   0.01600   0.01400   0.01600
O107      0.05200   0.05100   0.05100   0.01600   0.01400   0.01600
O108      0.05200   0.05100   0.05100   0.01600   0.01400   0.01600
O109      0.05200   0.05100   0.05100   0.01600  -0.01400  -0.01600
O110      0.05200   0.05100   0.05100   0.01600  -0.01400  -0.01600
O111      0.05200   0.05100   0.05100   0.01600  -0.01400  -0.01600
O112      0.05200   0.05100   0.05100   0.01600  -0.01400  -0.01600
O113      0.05100   0.05200   0.05100   0.01400  -0.01600  -0.01600
O114      0.05100   0.05200   0.05100   0.01400  -0.01600  -0.01600
O115      0.05100   0.05200   0.05100   0.01400  -0.01600  -0.01600
O116      0.05100   0.05200   0.05100   0.01400  -0.01600  -0.01600
O117      0.05100   0.05200   0.05100  -0.01400   0.01600  -0.01600
O118      0.05100   0.05200   0.05100  -0.01400   0.01600  -0.01600
O119      0.05100   0.05200   0.05100  -0.01400   0.01600  -0.01600
O120      0.05100   0.05200   0.05100  -0.01400   0.01600  -0.01600
O121      0.05100   0.05200   0.05100   0.01400   0.01600   0.01600
O122      0.05100   0.05200   0.05100   0.01400   0.01600   0.01600
O123      0.05100   0.05200   0.05100   0.01400   0.01600   0.01600
O124      0.05100   0.05200   0.05100   0.01400   0.01600   0.01600
O125      0.05100   0.05200   0.05100  -0.01400  -0.01600   0.01600
O126      0.05100   0.05200   0.05100  -0.01400  -0.01600   0.01600
O127      0.05100   0.05200   0.05100  -0.01400  -0.01600   0.01600
O128      0.05100   0.05200   0.05100  -0.01400  -0.01600   0.01600
O129      0.05100   0.05100   0.05200  -0.01600  -0.01600   0.01400
O130      0.05100   0.05100   0.05200  -0.01600  -0.01600   0.01400
O131      0.05100   0.05100   0.05200  -0.01600  -0.01600   0.01400
O132      0.05100   0.05100   0.05200  -0.01600  -0.01600   0.01400
O133      0.05100   0.05100   0.05200   0.01600  -0.01600  -0.01400
O134      0.05100   0.05100   0.05200   0.01600  -0.01600  -0.01400
O135      0.05100   0.05100   0.05200   0.01600  -0.01600  -0.01400
O136      0.05100   0.05100   0.05200   0.01600  -0.01600  -0.01400
O137      0.05100   0.05100   0.05200   0.01600   0.01600   0.01400
O138      0.05100   0.05100   0.05200   0.01600   0.01600   0.01400
O139      0.05100   0.05100   0.05200   0.01600   0.01600   0.01400
O140      0.05100   0.05100   0.05200   0.01600   0.01600   0.01400
O141      0.05100   0.05100   0.05200  -0.01600   0.01600  -0.01400
O142      0.05100   0.05100   0.05200  -0.01600   0.01600  -0.01400
O143      0.05100   0.05100   0.05200  -0.01600   0.01600  -0.01400
O144      0.05100   0.05100   0.05200  -0.01600   0.01600  -0.01400
O145      0.05100   0.05200   0.05100  -0.01600   0.01600  -0.01400
O146      0.05100   0.05200   0.05100  -0.01600   0.01600  -0.01400
O147      0.05100   0.05200   0.05100  -0.01600   0.01600  -0.01400
O148      0.05100   0.05200   0.05100  -0.01600   0.01600  -0.01400
O149      0.05100   0.05200   0.05100  -0.01600  -0.01600   0.01400
O150      0.05100   0.05200   0.05100  -0.01600  -0.01600   0.01400
O151      0.05100   0.05200   0.05100  -0.01600  -0.01600   0.01400
O152      0.05100   0.05200   0.05100  -0.01600  -0.01600   0.01400
O153      0.05100   0.05200   0.05100   0.01600  -0.01600  -0.01400
O154      0.05100   0.05200   0.05100   0.01600  -0.01600  -0.01400
O155      0.05100   0.05200   0.05100   0.01600  -0.01600  -0.01400
O156      0.05100   0.05200   0.05100   0.01600  -0.01600  -0.01400
O157      0.05100   0.05200   0.05100   0.01600   0.01600   0.01400
O158      0.05100   0.05200   0.05100   0.01600   0.01600   0.01400
O159      0.05100   0.05200   0.05100   0.01600   0.01600   0.01400
O160      0.05100   0.05200   0.05100   0.01600   0.01600   0.01400
O161      0.05200   0.05100   0.05100   0.01400   0.01600   0.01600
O162      0.05200   0.05100   0.05100   0.01400   0.01600   0.01600
O163      0.05200   0.05100   0.05100   0.01400   0.01600   0.01600
O164      0.05200   0.05100   0.05100   0.01400   0.01600   0.01600
O165      0.05200   0.05100   0.05100  -0.01400   0.01600  -0.01600
O166      0.05200   0.05100   0.05100  -0.01400   0.01600  -0.01600
O167      0.05200   0.05100   0.05100  -0.01400   0.01600  -0.01600
O168      0.05200   0.05100   0.05100  -0.01400   0.01600  -0.01600
O169      0.05200   0.05100   0.05100   0.01400  -0.01600  -0.01600
O170      0.05200   0.05100   0.05100   0.01400  -0.01600  -0.01600
O171      0.05200   0.05100   0.05100   0.01400  -0.01600  -0.01600
O172      0.05200   0.05100   0.05100   0.01400  -0.01600  -0.01600
O173      0.05200   0.05100   0.05100  -0.01400  -0.01600   0.01600
O174      0.05200   0.05100   0.05100  -0.01400  -0.01600   0.01600
O175      0.05200   0.05100   0.05100  -0.01400  -0.01600   0.01600
O176      0.05200   0.05100   0.05100  -0.01400  -0.01600   0.01600
O177      0.05100   0.05100   0.05200  -0.01600  -0.01400   0.01600
O178      0.05100   0.05100   0.05200  -0.01600  -0.01400   0.01600
O179      0.05100   0.05100   0.05200  -0.01600  -0.01400   0.01600
O180      0.05100   0.05100   0.05200  -0.01600  -0.01400   0.01600
O181      0.05100   0.05100   0.05200   0.01600   0.01400   0.01600
O182      0.05100   0.05100   0.05200   0.01600   0.01400   0.01600
O183      0.05100   0.05100   0.05200   0.01600   0.01400   0.01600
O184      0.05100   0.05100   0.05200   0.01600   0.01400   0.01600
O185      0.05100   0.05100   0.05200   0.01600  -0.01400  -0.01600
O186      0.05100   0.05100   0.05200   0.01600  -0.01400  -0.01600
O187      0.05100   0.05100   0.05200   0.01600  -0.01400  -0.01600
O188      0.05100   0.05100   0.05200   0.01600  -0.01400  -0.01600
O189      0.05100   0.05100   0.05200  -0.01600   0.01400  -0.01600
O190      0.05100   0.05100   0.05200  -0.01600   0.01400  -0.01600
O191      0.05100   0.05100   0.05200  -0.01600   0.01400  -0.01600
O192      0.05100   0.05100   0.05200  -0.01600   0.01400  -0.01600
Cu193     0.03300   0.03300   0.02790  -0.00910   0.00000   0.00000
Cu194     0.03300   0.03300   0.02790  -0.00910   0.00000   0.00000
Cu195     0.03300   0.03300   0.02790  -0.00910   0.00000   0.00000
Cu196     0.03300   0.03300   0.02790  -0.00910   0.00000   0.00000
Cu197     0.03300   0.03300   0.02790  -0.00910   0.00000   0.00000
Cu198     0.03300   0.03300   0.02790  -0.00910   0.00000   0.00000
Cu199     0.03300   0.03300   0.02790  -0.00910   0.00000   0.00000
Cu200     0.03300   0.03300   0.02790  -0.00910   0.00000   0.00000
Cu201     0.03300   0.03300   0.02790   0.00910   0.00000   0.00000
Cu202     0.03300   0.03300   0.02790   0.00910   0.00000   0.00000
Cu203     0.03300   0.03300   0.02790   0.00910   0.00000   0.00000
Cu204     0.03300   0.03300   0.02790   0.00910   0.00000   0.00000
Cu205     0.03300   0.03300   0.02790   0.00910   0.00000   0.00000
Cu206     0.03300   0.03300   0.02790   0.00910   0.00000   0.00000
Cu207     0.03300   0.03300   0.02790   0.00910   0.00000   0.00000
Cu208     0.03300   0.03300   0.02790   0.00910   0.00000   0.00000
Cu209     0.02790   0.03300   0.03300   0.00000   0.00000  -0.00910
Cu210     0.02790   0.03300   0.03300   0.00000   0.00000  -0.00910
Cu211     0.02790   0.03300   0.03300   0.00000   0.00000  -0.00910
Cu212     0.02790   0.03300   0.03300   0.00000   0.00000  -0.00910
Cu213     0.02790   0.03300   0.03300   0.00000   0.00000  -0.00910
Cu214     0.02790   0.03300   0.03300   0.00000   0.00000  -0.00910
Cu215     0.02790   0.03300   0.03300   0.00000   0.00000  -0.00910
Cu216     0.02790   0.03300   0.03300   0.00000   0.00000  -0.00910
Cu217     0.02790   0.03300   0.03300   0.00000   0.00000   0.00910
Cu218     0.02790   0.03300   0.03300   0.00000   0.00000   0.00910
Cu219     0.02790   0.03300   0.03300   0.00000   0.00000   0.00910
Cu220     0.02790   0.03300   0.03300   0.00000   0.00000   0.00910
Cu221     0.02790   0.03300   0.03300   0.00000   0.00000   0.00910
Cu222     0.02790   0.03300   0.03300   0.00000   0.00000   0.00910
Cu223     0.02790   0.03300   0.03300   0.00000   0.00000   0.00910
Cu224     0.02790   0.03300   0.03300   0.00000   0.00000   0.00910
Cu225     0.03300   0.02790   0.03300   0.00000  -0.00910   0.00000
Cu226     0.03300   0.02790   0.03300   0.00000  -0.00910   0.00000
Cu227     0.03300   0.02790   0.03300   0.00000  -0.00910   0.00000
Cu228     0.03300   0.02790   0.03300   0.00000  -0.00910   0.00000
Cu229     0.03300   0.02790   0.03300   0.00000  -0.00910   0.00000
Cu230     0.03300   0.02790   0.03300   0.00000  -0.00910   0.00000
Cu231     0.03300   0.02790   0.03300   0.00000  -0.00910   0.00000
Cu232     0.03300   0.02790   0.03300   0.00000  -0.00910   0.00000
Cu233     0.03300   0.02790   0.03300   0.00000   0.00910   0.00000
Cu234     0.03300   0.02790   0.03300   0.00000   0.00910   0.00000
Cu235     0.03300   0.02790   0.03300   0.00000   0.00910   0.00000
Cu236     0.03300   0.02790   0.03300   0.00000   0.00910   0.00000
Cu237     0.03300   0.02790   0.03300   0.00000   0.00910   0.00000
Cu238     0.03300   0.02790   0.03300   0.00000   0.00910   0.00000
Cu239     0.03300   0.02790   0.03300   0.00000   0.00910   0.00000
Cu240     0.03300   0.02790   0.03300   0.00000   0.00910   0.00000
C241      0.03900   0.03900   0.04300  -0.00100   0.00400  -0.00400
C242      0.04200   0.04200   0.03400  -0.00600   0.00000   0.00000
C243      0.03900   0.03900   0.04300  -0.00100   0.00400  -0.00400
C244      0.04200   0.04200   0.03400  -0.00600   0.00000   0.00000
C245      0.03900   0.03900   0.04300  -0.00100  -0.00400   0.00400
C246      0.04200   0.04200   0.03400  -0.00600   0.00000   0.00000
C247      0.03900   0.03900   0.04300  -0.00100  -0.00400   0.00400
C248      0.04200   0.04200   0.03400  -0.00600   0.00000   0.00000
C249      0.03900   0.03900   0.04300  -0.00100  -0.00400   0.00400
C250      0.04200   0.04200   0.03400  -0.00600   0.00000   0.00000
C251      0.03900   0.03900   0.04300   0.00100   0.00400   0.00400
C252      0.04200   0.04200   0.03400   0.00600   0.00000   0.00000
C253      0.03900   0.03900   0.04300   0.00100   0.00400   0.00400
C254      0.04200   0.04200   0.03400   0.00600   0.00000   0.00000
C255      0.03900   0.03900   0.04300   0.00100   0.00400   0.00400
C256      0.04200   0.04200   0.03400   0.00600   0.00000   0.00000
C257      0.03900   0.03900   0.04300   0.00100  -0.00400  -0.00400
C258      0.04200   0.04200   0.03400   0.00600   0.00000   0.00000
C259      0.03900   0.03900   0.04300   0.00100  -0.00400  -0.00400
C260      0.04200   0.04200   0.03400   0.00600   0.00000   0.00000
C261      0.04300   0.03900   0.03900   0.00400  -0.00400  -0.00100
C262      0.03400   0.04200   0.04200   0.00000   0.00000  -0.00600
C263      0.04300   0.03900   0.03900   0.00400  -0.00400  -0.00100
C264      0.03400   0.04200   0.04200   0.00000   0.00000  -0.00600
C265      0.04300   0.03900   0.03900  -0.00400   0.00400  -0.00100
C266      0.03400   0.04200   0.04200   0.00000   0.00000  -0.00600
C267      0.04300   0.03900   0.03900  -0.00400   0.00400  -0.00100
C268      0.03400   0.04200   0.04200   0.00000   0.00000  -0.00600
C269      0.04300   0.03900   0.03900  -0.00400   0.00400  -0.00100
C270      0.03400   0.04200   0.04200   0.00000   0.00000  -0.00600
C271      0.04300   0.03900   0.03900   0.00400   0.00400   0.00100
C272      0.03400   0.04200   0.04200   0.00000   0.00000   0.00600
C273      0.04300   0.03900   0.03900   0.00400   0.00400   0.00100
C274      0.03400   0.04200   0.04200   0.00000   0.00000   0.00600
C275      0.04300   0.03900   0.03900   0.00400   0.00400   0.00100
C276      0.03400   0.04200   0.04200   0.00000   0.00000   0.00600
C277      0.04300   0.03900   0.03900  -0.00400  -0.00400   0.00100
C278      0.03400   0.04200   0.04200   0.00000   0.00000   0.00600
C279      0.04300   0.03900   0.03900  -0.00400  -0.00400   0.00100
C280      0.03400   0.04200   0.04200   0.00000   0.00000   0.00600
C281      0.03900   0.04300   0.03900  -0.00400  -0.00100   0.00400
C282      0.04200   0.03400   0.04200   0.00000  -0.00600   0.00000
C283      0.03900   0.04300   0.03900  -0.00400  -0.00100   0.00400
C284      0.04200   0.03400   0.04200   0.00000  -0.00600   0.00000
C285      0.03900   0.04300   0.03900   0.00400  -0.00100  -0.00400
C286      0.04200   0.03400   0.04200   0.00000  -0.00600   0.00000
C287      0.03900   0.04300   0.03900   0.00400  -0.00100  -0.00400
C288      0.04200   0.03400   0.04200   0.00000  -0.00600   0.00000
C289      0.03900   0.04300   0.03900   0.00400  -0.00100  -0.00400
C290      0.04200   0.03400   0.04200   0.00000  -0.00600   0.00000
C291      0.03900   0.04300   0.03900   0.00400   0.00100   0.00400
C292      0.04200   0.03400   0.04200   0.00000   0.00600   0.00000
C293      0.03900   0.04300   0.03900   0.00400   0.00100   0.00400
C294      0.04200   0.03400   0.04200   0.00000   0.00600   0.00000
C295      0.03900   0.04300   0.03900  -0.00400   0.00100  -0.00400
C296      0.04200   0.03400   0.04200   0.00000   0.00600   0.00000
C297      0.03900   0.04300   0.03900  -0.00400   0.00100  -0.00400
C298      0.04200   0.03400   0.04200   0.00000   0.00600   0.00000
C299      0.03900   0.04300   0.03900  -0.00400   0.00100  -0.00400
C300      0.04200   0.03400   0.04200   0.00000   0.00600   0.00000
C301      0.03900   0.03900   0.04300  -0.00100   0.00400  -0.00400
C302      0.04200   0.04200   0.03400  -0.00600   0.00000   0.00000
C303      0.03900   0.03900   0.04300  -0.00100   0.00400  -0.00400
C304      0.04200   0.04200   0.03400  -0.00600   0.00000   0.00000
C305      0.03900   0.03900   0.04300  -0.00100  -0.00400   0.00400
C306      0.04200   0.04200   0.03400  -0.00600   0.00000   0.00000
C307      0.03900   0.03900   0.04300  -0.00100  -0.00400   0.00400
C308      0.04200   0.04200   0.03400  -0.00600   0.00000   0.00000
C309      0.03900   0.03900   0.04300  -0.00100  -0.00400   0.00400
C310      0.04200   0.04200   0.03400  -0.00600   0.00000   0.00000
C311      0.03900   0.03900   0.04300   0.00100  -0.00400  -0.00400
C312      0.04200   0.04200   0.03400   0.00600   0.00000   0.00000
C313      0.03900   0.03900   0.04300   0.00100  -0.00400  -0.00400
C314      0.04200   0.04200   0.03400   0.00600   0.00000   0.00000
C315      0.03900   0.03900   0.04300   0.00100   0.00400   0.00400
C316      0.04200   0.04200   0.03400   0.00600   0.00000   0.00000
C317      0.03900   0.03900   0.04300   0.00100   0.00400   0.00400
C318      0.04200   0.04200   0.03400   0.00600   0.00000   0.00000
C319      0.03900   0.03900   0.04300   0.00100   0.00400   0.00400
C320      0.04200   0.04200   0.03400   0.00600   0.00000   0.00000
C321      0.03900   0.04300   0.03900   0.00400   0.00100   0.00400
C322      0.04200   0.03400   0.04200   0.00000   0.00600   0.00000
C323      0.03900   0.04300   0.03900   0.00400   0.00100   0.00400
C324      0.04200   0.03400   0.04200   0.00000   0.00600   0.00000
C325      0.03900   0.04300   0.03900  -0.00400   0.00100  -0.00400
C326      0.04200   0.03400   0.04200   0.00000   0.00600   0.00000
C327      0.03900   0.04300   0.03900  -0.00400   0.00100  -0.00400
C328      0.04200   0.03400   0.04200   0.00000   0.00600   0.00000
C329      0.03900   0.04300   0.03900  -0.00400   0.00100  -0.00400
C330      0.04200   0.03400   0.04200   0.00000   0.00600   0.00000
C331      0.03900   0.04300   0.03900   0.00400  -0.00100  -0.00400
C332      0.04200   0.03400   0.04200   0.00000  -0.00600   0.00000
C333      0.03900   0.04300   0.03900   0.00400  -0.00100  -0.00400
C334      0.04200   0.03400   0.04200   0.00000  -0.00600   0.00000
C335      0.03900   0.04300   0.03900   0.00400  -0.00100  -0.00400
C336      0.04200   0.03400   0.04200   0.00000  -0.00600   0.00000
C337      0.03900   0.04300   0.03900  -0.00400  -0.00100   0.00400
C338      0.04200   0.03400   0.04200   0.00000  -0.00600   0.00000
C339      0.03900   0.04300   0.03900  -0.00400  -0.00100   0.00400
C340      0.04200   0.03400   0.04200   0.00000  -0.00600   0.00000
C341      0.04300   0.03900   0.03900  -0.00400  -0.00400   0.00100
C342      0.03400   0.04200   0.04200   0.00000   0.00000   0.00600
C343      0.04300   0.03900   0.03900  -0.00400  -0.00400   0.00100
C344      0.03400   0.04200   0.04200   0.00000   0.00000   0.00600
C345      0.04300   0.03900   0.03900   0.00400   0.00400   0.00100
C346      0.03400   0.04200   0.04200   0.00000   0.00000   0.00600
C347      0.04300   0.03900   0.03900   0.00400   0.00400   0.00100
C348      0.03400   0.04200   0.04200   0.00000   0.00000   0.00600
C349      0.04300   0.03900   0.03900   0.00400   0.00400   0.00100
C350      0.03400   0.04200   0.04200   0.00000   0.00000   0.00600
C351      0.04300   0.03900   0.03900   0.00400  -0.00400  -0.00100
C352      0.03400   0.04200   0.04200   0.00000   0.00000  -0.00600
C353      0.04300   0.03900   0.03900   0.00400  -0.00400  -0.00100
C354      0.03400   0.04200   0.04200   0.00000   0.00000  -0.00600
C355      0.04300   0.03900   0.03900  -0.00400   0.00400  -0.00100
C356      0.03400   0.04200   0.04200   0.00000   0.00000  -0.00600
C357      0.04300   0.03900   0.03900  -0.00400   0.00400  -0.00100
C358      0.03400   0.04200   0.04200   0.00000   0.00000  -0.00600
C359      0.04300   0.03900   0.03900  -0.00400   0.00400  -0.00100
C360      0.03400   0.04200   0.04200   0.00000   0.00000  -0.00600
C361      0.03900   0.03900   0.04300  -0.00100   0.00400  -0.00400
C362      0.04200   0.04200   0.03400  -0.00600   0.00000   0.00000
C363      0.03900   0.03900   0.04300  -0.00100   0.00400  -0.00400
C364      0.04200   0.04200   0.03400  -0.00600   0.00000   0.00000
C365      0.03900   0.03900   0.04300  -0.00100  -0.00400   0.00400
C366      0.04200   0.04200   0.03400  -0.00600   0.00000   0.00000
C367      0.03900   0.03900   0.04300   0.00100   0.00400   0.00400
C368      0.04200   0.04200   0.03400   0.00600   0.00000   0.00000
C369      0.03900   0.03900   0.04300   0.00100  -0.00400  -0.00400
C370      0.04200   0.04200   0.03400   0.00600   0.00000   0.00000
C371      0.03900   0.03900   0.04300   0.00100  -0.00400  -0.00400
C372      0.04200   0.04200   0.03400   0.00600   0.00000   0.00000
C373      0.04300   0.03900   0.03900   0.00400  -0.00400  -0.00100
C374      0.03400   0.04200   0.04200   0.00000   0.00000  -0.00600
C375      0.04300   0.03900   0.03900   0.00400  -0.00400  -0.00100
C376      0.03400   0.04200   0.04200   0.00000   0.00000  -0.00600
C377      0.04300   0.03900   0.03900  -0.00400   0.00400  -0.00100
C378      0.03400   0.04200   0.04200   0.00000   0.00000  -0.00600
C379      0.04300   0.03900   0.03900   0.00400   0.00400   0.00100
C380      0.03400   0.04200   0.04200   0.00000   0.00000   0.00600
C381      0.04300   0.03900   0.03900  -0.00400  -0.00400   0.00100
C382      0.03400   0.04200   0.04200   0.00000   0.00000   0.00600
C383      0.04300   0.03900   0.03900  -0.00400  -0.00400   0.00100
C384      0.03400   0.04200   0.04200   0.00000   0.00000   0.00600
C385      0.03900   0.04300   0.03900  -0.00400  -0.00100   0.00400
C386      0.04200   0.03400   0.04200   0.00000  -0.00600   0.00000
C387      0.03900   0.04300   0.03900  -0.00400  -0.00100   0.00400
C388      0.04200   0.03400   0.04200   0.00000  -0.00600   0.00000
C389      0.03900   0.04300   0.03900   0.00400  -0.00100  -0.00400
C390      0.04200   0.03400   0.04200   0.00000  -0.00600   0.00000
C391      0.03900   0.04300   0.03900   0.00400   0.00100   0.00400
C392      0.04200   0.03400   0.04200   0.00000   0.00600   0.00000
C393      0.03900   0.04300   0.03900   0.00400   0.00100   0.00400
C394      0.04200   0.03400   0.04200   0.00000   0.00600   0.00000
C395      0.03900   0.04300   0.03900  -0.00400   0.00100  -0.00400
C396      0.04200   0.03400   0.04200   0.00000   0.00600   0.00000
C397      0.03900   0.03900   0.04300  -0.00100   0.00400  -0.00400
C398      0.04200   0.04200   0.03400  -0.00600   0.00000   0.00000
C399      0.03900   0.03900   0.04300  -0.00100   0.00400  -0.00400
C400      0.04200   0.04200   0.03400  -0.00600   0.00000   0.00000
C401      0.03900   0.03900   0.04300  -0.00100  -0.00400   0.00400
C402      0.04200   0.04200   0.03400  -0.00600   0.00000   0.00000
C403      0.03900   0.03900   0.04300   0.00100  -0.00400  -0.00400
C404      0.04200   0.04200   0.03400   0.00600   0.00000   0.00000
C405      0.03900   0.03900   0.04300   0.00100  -0.00400  -0.00400
C406      0.04200   0.04200   0.03400   0.00600   0.00000   0.00000
C407      0.03900   0.03900   0.04300   0.00100   0.00400   0.00400
C408      0.04200   0.04200   0.03400   0.00600   0.00000   0.00000
C409      0.03900   0.04300   0.03900   0.00400   0.00100   0.00400
C410      0.04200   0.03400   0.04200   0.00000   0.00600   0.00000
C411      0.03900   0.04300   0.03900   0.00400   0.00100   0.00400
C412      0.04200   0.03400   0.04200   0.00000   0.00600   0.00000
C413      0.03900   0.04300   0.03900  -0.00400   0.00100  -0.00400
C414      0.04200   0.03400   0.04200   0.00000   0.00600   0.00000
C415      0.03900   0.04300   0.03900   0.00400  -0.00100  -0.00400
C416      0.04200   0.03400   0.04200   0.00000  -0.00600   0.00000
C417      0.03900   0.04300   0.03900  -0.00400  -0.00100   0.00400
C418      0.04200   0.03400   0.04200   0.00000  -0.00600   0.00000
C419      0.03900   0.04300   0.03900  -0.00400  -0.00100   0.00400
C420      0.04200   0.03400   0.04200   0.00000  -0.00600   0.00000
C421      0.04300   0.03900   0.03900  -0.00400  -0.00400   0.00100
C422      0.03400   0.04200   0.04200   0.00000   0.00000   0.00600
C423      0.04300   0.03900   0.03900  -0.00400  -0.00400   0.00100
C424      0.03400   0.04200   0.04200   0.00000   0.00000   0.00600
C425      0.04300   0.03900   0.03900   0.00400   0.00400   0.00100
C426      0.03400   0.04200   0.04200   0.00000   0.00000   0.00600
C427      0.04300   0.03900   0.03900   0.00400  -0.00400  -0.00100
C428      0.03400   0.04200   0.04200   0.00000   0.00000  -0.00600
C429      0.04300   0.03900   0.03900   0.00400  -0.00400  -0.00100
C430      0.03400   0.04200   0.04200   0.00000   0.00000  -0.00600
C431      0.04300   0.03900   0.03900  -0.00400   0.00400  -0.00100
C432      0.03400   0.04200   0.04200   0.00000   0.00000  -0.00600
C433      0.04100   0.04400   0.04100  -0.00400   0.00200  -0.00400
C435      0.04100   0.04400   0.04100  -0.00400   0.00200  -0.00400
C437      0.04100   0.04400   0.04100  -0.00400  -0.00200   0.00400
C439      0.04100   0.04400   0.04100  -0.00400  -0.00200   0.00400
C441      0.04100   0.04400   0.04100  -0.00400  -0.00200   0.00400
C443      0.04100   0.04400   0.04100   0.00400   0.00200   0.00400
C445      0.04100   0.04400   0.04100   0.00400   0.00200   0.00400
C447      0.04100   0.04400   0.04100   0.00400   0.00200   0.00400
C449      0.04100   0.04400   0.04100   0.00400  -0.00200  -0.00400
C451      0.04100   0.04400   0.04100   0.00400  -0.00200  -0.00400
C453      0.04100   0.04100   0.04400   0.00200  -0.00400  -0.00400
C455      0.04100   0.04100   0.04400   0.00200  -0.00400  -0.00400
C457      0.04100   0.04100   0.04400   0.00200  -0.00400  -0.00400
C459      0.04100   0.04100   0.04400  -0.00200   0.00400  -0.00400
C461      0.04100   0.04100   0.04400  -0.00200   0.00400  -0.00400
C463      0.04100   0.04100   0.04400  -0.00200   0.00400  -0.00400
C465      0.04100   0.04100   0.04400   0.00200   0.00400   0.00400
C467      0.04100   0.04100   0.04400   0.00200   0.00400   0.00400
C469      0.04100   0.04100   0.04400  -0.00200  -0.00400   0.00400
C471      0.04100   0.04100   0.04400  -0.00200  -0.00400   0.00400
C473      0.04400   0.04100   0.04100  -0.00400  -0.00400   0.00200
C475      0.04400   0.04100   0.04100  -0.00400  -0.00400   0.00200
C477      0.04400   0.04100   0.04100  -0.00400  -0.00400   0.00200
C479      0.04400   0.04100   0.04100   0.00400  -0.00400  -0.00200
C481      0.04400   0.04100   0.04100   0.00400  -0.00400  -0.00200
C483      0.04400   0.04100   0.04100   0.00400  -0.00400  -0.00200
C485      0.04400   0.04100   0.04100   0.00400   0.00400   0.00200
C487      0.04400   0.04100   0.04100   0.00400   0.00400   0.00200
C489      0.04400   0.04100   0.04100  -0.00400   0.00400  -0.00200
C491      0.04400   0.04100   0.04100  -0.00400   0.00400  -0.00200
C493      0.04400   0.04100   0.04100  -0.00400   0.00400  -0.00200
C495      0.04400   0.04100   0.04100  -0.00400   0.00400  -0.00200
C497      0.04400   0.04100   0.04100  -0.00400  -0.00400   0.00200
C499      0.04400   0.04100   0.04100  -0.00400  -0.00400   0.00200
C501      0.04400   0.04100   0.04100  -0.00400  -0.00400   0.00200
C503      0.04400   0.04100   0.04100   0.00400  -0.00400  -0.00200
C505      0.04400   0.04100   0.04100   0.00400  -0.00400  -0.00200
C507      0.04400   0.04100   0.04100   0.00400  -0.00400  -0.00200
C509      0.04400   0.04100   0.04100   0.00400   0.00400   0.00200
C511      0.04400   0.04100   0.04100   0.00400   0.00400   0.00200
C513      0.04100   0.04100   0.04400   0.00200   0.00400   0.00400
C515      0.04100   0.04100   0.04400   0.00200   0.00400   0.00400
C517      0.04100   0.04100   0.04400  -0.00200   0.00400  -0.00400
C519      0.04100   0.04100   0.04400  -0.00200   0.00400  -0.00400
C521      0.04100   0.04100   0.04400  -0.00200   0.00400  -0.00400
C523      0.04100   0.04100   0.04400   0.00200  -0.00400  -0.00400
C525      0.04100   0.04100   0.04400   0.00200  -0.00400  -0.00400
C527      0.04100   0.04100   0.04400   0.00200  -0.00400  -0.00400
C529      0.04100   0.04100   0.04400  -0.00200  -0.00400   0.00400
C531      0.04100   0.04100   0.04400  -0.00200  -0.00400   0.00400
C533      0.04100   0.04400   0.04100  -0.00400  -0.00200   0.00400
C535      0.04100   0.04400   0.04100  -0.00400  -0.00200   0.00400
C537      0.04100   0.04400   0.04100  -0.00400  -0.00200   0.00400
C539      0.04100   0.04400   0.04100   0.00400   0.00200   0.00400
C541      0.04100   0.04400   0.04100   0.00400   0.00200   0.00400
C543      0.04100   0.04400   0.04100   0.00400   0.00200   0.00400
C545      0.04100   0.04400   0.04100   0.00400  -0.00200  -0.00400
C547      0.04100   0.04400   0.04100   0.00400  -0.00200  -0.00400
C549      0.04100   0.04400   0.04100  -0.00400   0.00200  -0.00400
C551      0.04100   0.04400   0.04100  -0.00400   0.00200  -0.00400
C553      0.04100   0.04400   0.04100  -0.00400   0.00200  -0.00400
C555      0.04100   0.04400   0.04100  -0.00400   0.00200  -0.00400
C557      0.04100   0.04400   0.04100  -0.00400  -0.00200   0.00400
C559      0.04100   0.04400   0.04100   0.00400   0.00200   0.00400
C561      0.04100   0.04400   0.04100   0.00400  -0.00200  -0.00400
C563      0.04100   0.04400   0.04100   0.00400  -0.00200  -0.00400
C565      0.04100   0.04100   0.04400   0.00200  -0.00400  -0.00400
C567      0.04100   0.04100   0.04400  -0.00200   0.00400  -0.00400
C569      0.04100   0.04100   0.04400   0.00200   0.00400   0.00400
C571      0.04100   0.04100   0.04400   0.00200   0.00400   0.00400
C573      0.04100   0.04100   0.04400  -0.00200  -0.00400   0.00400
C575      0.04100   0.04100   0.04400  -0.00200  -0.00400   0.00400
C577      0.04400   0.04100   0.04100  -0.00400  -0.00400   0.00200
C579      0.04400   0.04100   0.04100   0.00400  -0.00400  -0.00200
C581      0.04400   0.04100   0.04100   0.00400   0.00400   0.00200
C583      0.04400   0.04100   0.04100   0.00400   0.00400   0.00200
C585      0.04400   0.04100   0.04100  -0.00400   0.00400  -0.00200
C587      0.04400   0.04100   0.04100  -0.00400   0.00400  -0.00200
C589      0.04400   0.04100   0.04100  -0.00400   0.00400  -0.00200
C591      0.04400   0.04100   0.04100  -0.00400   0.00400  -0.00200
C593      0.04400   0.04100   0.04100  -0.00400  -0.00400   0.00200
C595      0.04400   0.04100   0.04100   0.00400  -0.00400  -0.00200
C597      0.04400   0.04100   0.04100   0.00400   0.00400   0.00200
C599      0.04400   0.04100   0.04100   0.00400   0.00400   0.00200
C601      0.04100   0.04100   0.04400   0.00200   0.00400   0.00400
C603      0.04100   0.04100   0.04400   0.00200   0.00400   0.00400
C605      0.04100   0.04100   0.04400  -0.00200   0.00400  -0.00400
C607      0.04100   0.04100   0.04400   0.00200  -0.00400  -0.00400
C609      0.04100   0.04100   0.04400  -0.00200  -0.00400   0.00400
C611      0.04100   0.04100   0.04400  -0.00200  -0.00400   0.00400
C613      0.04100   0.04400   0.04100  -0.00400  -0.00200   0.00400
C615      0.04100   0.04400   0.04100   0.00400   0.00200   0.00400
C617      0.04100   0.04400   0.04100   0.00400  -0.00200  -0.00400
C619      0.04100   0.04400   0.04100   0.00400  -0.00200  -0.00400
C621      0.04100   0.04400   0.04100  -0.00400   0.00200  -0.00400
C623      0.04100   0.04400   0.04100  -0.00400   0.00200  -0.00400
loop_
_geom_bond_atom_site_label_1
_geom_bond_atom_site_label_2
_geom_bond_distance
_geom_bond_site_symmetry_2
_ccdc_geom_bond_type
O1     Cu193   1.952   1_556 S
O1     C242    1.252   .     A
O2     Cu194   1.952   .     S
O2     C244    1.252   .     A
O3     Cu195   1.952   .     S
O3     C400    1.252   .     A
O4     Cu196   1.952   1_556 S
O4     C398    1.252   .     A
O5     Cu197   1.952   1_556 S
O5     C246    1.252   .     A
O6     Cu198   1.952   .     S
O6     C248    1.252   .     A
O7     Cu199   1.952   .     S
O7     C402    1.252   .     A
O8     Cu200   1.952   1_556 S
O8     C250    1.252   .     A
O9     Cu201   1.952   .     S
O9     C252    1.252   .     A
O10    Cu202   1.952   .     S
O10    C254    1.252   .     A
O11    Cu203   1.952   .     S
O11    C256    1.252   .     A
O12    Cu204   1.952   .     S
O12    C408    1.252   .     A
O13    Cu205   1.952   .     S
O13    C258    1.252   .     A
O14    Cu206   1.952   .     S
O14    C260    1.252   .     A
O15    Cu207   1.952   .     S
O15    C406    1.252   .     A
O16    Cu208   1.952   .     S
O16    C404    1.252   .     A
O17    Cu209   1.952   1_655 S
O17    C262    1.252   .     A
O18    Cu210   1.952   1_655 S
O18    C428    1.252   .     A
O19    Cu211   1.952   .     S
O19    C264    1.252   .     A
O20    Cu212   1.952   .     S
O20    C430    1.252   .     A
O21    Cu213   1.952   1_655 S
O21    C266    1.252   .     A
O22    Cu214   1.952   1_655 S
O22    C268    1.252   .     A
O23    Cu215   1.952   .     S
O23    C270    1.252   .     A
O24    Cu216   1.952   .     S
O24    C432    1.252   .     A
O25    Cu217   1.952   .     S
O25    C272    1.252   .     A
O26    Cu218   1.952   .     S
O26    C426    1.252   .     A
O27    Cu219   1.952   .     S
O27    C274    1.252   .     A
O28    Cu220   1.952   .     S
O28    C276    1.252   .     A
O29    Cu221   1.952   .     S
O29    C278    1.252   .     A
O30    Cu222   1.952   .     S
O30    C422    1.252   .     A
O31    Cu223   1.952   .     S
O31    C280    1.252   .     A
O32    Cu224   1.952   .     S
O32    C424    1.252   .     A
O33    Cu225   1.952   1_565 S
O33    C282    1.252   .     A
O34    Cu226   1.952   .     S
O34    C284    1.252   .     A
O35    Cu227   1.952   1_565 S
O35    C418    1.252   .     A
O36    Cu228   1.952   .     S
O36    C420    1.252   .     A
O37    Cu229   1.952   1_565 S
O37    C286    1.252   .     A
O38    Cu230   1.952   .     S
O38    C288    1.252   .     A
O39    Cu231   1.952   1_565 S
O39    C290    1.252   .     A
O40    Cu232   1.952   .     S
O40    C416    1.252   .     A
O41    Cu233   1.952   .     S
O41    C292    1.252   .     A
O42    Cu234   1.952   .     S
O42    C294    1.252   .     A
O43    Cu235   1.952   .     S
O43    C410    1.252   .     A
O44    Cu236   1.952   .     S
O44    C412    1.252   .     A
O45    Cu237   1.952   .     S
O45    C296    1.252   .     A
O46    Cu238   1.952   .     S
O46    C298    1.252   .     A
O47    Cu239   1.952   .     S
O47    C414    1.252   .     A
O48    Cu240   1.952   .     S
O48    C300    1.252   .     A
O49    Cu193   1.952   .     S
O49    C302    1.252   .     A
O50    Cu194   1.952   .     S
O50    C304    1.252   .     A
O51    Cu195   1.952   .     S
O51    C364    1.252   .     A
O52    Cu196   1.952   .     S
O52    C362    1.252   .     A
O53    Cu197   1.952   .     S
O53    C306    1.252   .     A
O54    Cu198   1.952   .     S
O54    C308    1.252   .     A
O55    Cu199   1.952   .     S
O55    C366    1.252   .     A
O56    Cu200   1.952   .     S
O56    C310    1.252   .     A
O57    Cu205   1.952   1_556 S
O57    C312    1.252   .     A
O58    Cu206   1.952   .     S
O58    C314    1.252   .     A
O59    Cu207   1.952   .     S
O59    C372    1.252   .     A
O60    Cu208   1.952   1_556 S
O60    C370    1.252   .     A
O61    Cu201   1.952   1_556 S
O61    C316    1.252   .     A
O62    Cu202   1.952   .     S
O62    C318    1.252   .     A
O63    Cu203   1.952   .     S
O63    C320    1.252   .     A
O64    Cu204   1.952   1_556 S
O64    C368    1.252   .     A
O65    Cu233   1.952   1_565 S
O65    C322    1.252   .     A
O66    Cu234   1.952   .     S
O66    C324    1.252   .     A
O67    Cu235   1.952   1_565 S
O67    C392    1.252   .     A
O68    Cu236   1.952   .     S
O68    C394    1.252   .     A
O69    Cu237   1.952   1_565 S
O69    C326    1.252   .     A
O70    Cu238   1.952   .     S
O70    C328    1.252   .     A
O71    Cu239   1.952   1_565 S
O71    C396    1.252   .     A
O72    Cu240   1.952   .     S
O72    C330    1.252   .     A
O73    Cu229   1.952   .     S
O73    C332    1.252   .     A
O74    Cu230   1.952   .     S
O74    C334    1.252   .     A
O75    Cu231   1.952   .     S
O75    C336    1.252   .     A
O76    Cu232   1.952   .     S
O76    C390    1.252   .     A
O77    Cu225   1.952   .     S
O77    C338    1.252   .     A
O78    Cu226   1.952   .     S
O78    C340    1.252   .     A
O79    Cu227   1.952   .     S
O79    C386    1.252   .     A
O80    Cu228   1.952   .     S
O80    C388    1.252   .     A
O81    Cu221   1.952   1_655 S
O81    C342    1.252   .     A
O82    Cu222   1.952   1_655 S
O82    C382    1.252   .     A
O83    Cu223   1.952   .     S
O83    C344    1.252   .     A
O84    Cu224   1.952   .     S
O84    C384    1.252   .     A
O85    Cu217   1.952   1_655 S
O85    C346    1.252   .     A
O86    Cu218   1.952   1_655 S
O86    C380    1.252   .     A
O87    Cu219   1.952   .     S
O87    C348    1.252   .     A
O88    Cu220   1.952   .     S
O88    C350    1.252   .     A
O89    Cu209   1.952   .     S
O89    C352    1.252   .     A
O90    Cu210   1.952   .     S
O90    C374    1.252   .     A
O91    Cu211   1.952   .     S
O91    C354    1.252   .     A
O92    Cu212   1.952   .     S
O92    C376    1.252   .     A
O93    Cu213   1.952   .     S
O93    C356    1.252   .     A
O94    Cu214   1.952   .     S
O94    C358    1.252   .     A
O95    Cu215   1.952   .     S
O95    C360    1.252   .     A
O96    Cu216   1.952   .     S
O96    C378    1.252   .     A
O97    Cu197   1.952   .     S
O97    C362    1.252   .     A
O98    Cu198   1.952   .     S
O98    C364    1.252   .     A
O99    Cu199   1.952   .     S
O99    C304    1.252   .     A
O100   Cu200   1.952   .     S
O100   C302    1.252   .     A
O101   Cu193   1.952   .     S
O101   C310    1.252   .     A
O102   Cu194   1.952   .     S
O102   C366    1.252   .     A
O103   Cu195   1.952   .     S
O103   C308    1.252   .     A
O104   Cu196   1.952   .     S
O104   C306    1.252   .     A
O105   Cu205   1.952   1_556 S
O105   C368    1.252   .     A
O106   Cu206   1.952   .     S
O106   C320    1.252   .     A
O107   Cu207   1.952   .     S
O107   C318    1.252   .     A
O108   Cu208   1.952   1_556 S
O108   C316    1.252   .     A
O109   Cu201   1.952   1_556 S
O109   C370    1.252   .     A
O110   Cu202   1.952   .     S
O110   C372    1.252   .     A
O111   Cu203   1.952   .     S
O111   C314    1.252   .     A
O112   Cu204   1.952   1_556 S
O112   C312    1.252   .     A
O113   Cu213   1.952   .     S
O113   C374    1.252   .     A
O114   Cu214   1.952   .     S
O114   C352    1.252   .     A
O115   Cu215   1.952   .     S
O115   C376    1.252   .     A
O116   Cu216   1.952   .     S
O116   C354    1.252   .     A
O117   Cu209   1.952   .     S
O117   C358    1.252   .     A
O118   Cu210   1.952   .     S
O118   C356    1.252   .     A
O119   Cu211   1.952   .     S
O119   C378    1.252   .     A
O120   Cu212   1.952   .     S
O120   C360    1.252   .     A
O121   Cu221   1.952   1_655 S
O121   C380    1.252   .     A
O122   Cu222   1.952   1_655 S
O122   C346    1.252   .     A
O123   Cu223   1.952   .     S
O123   C350    1.252   .     A
O124   Cu224   1.952   .     S
O124   C348    1.252   .     A
O125   Cu217   1.952   1_655 S
O125   C382    1.252   .     A
O126   Cu218   1.952   1_655 S
O126   C342    1.252   .     A
O127   Cu219   1.952   .     S
O127   C384    1.252   .     A
O128   Cu220   1.952   .     S
O128   C344    1.252   .     A
O129   Cu229   1.952   .     S
O129   C386    1.252   .     A
O130   Cu230   1.952   .     S
O130   C388    1.252   .     A
O131   Cu231   1.952   .     S
O131   C338    1.252   .     A
O132   Cu232   1.952   .     S
O132   C340    1.252   .     A
O133   Cu225   1.952   .     S
O133   C336    1.252   .     A
O134   Cu226   1.952   .     S
O134   C390    1.252   .     A
O135   Cu227   1.952   .     S
O135   C332    1.252   .     A
O136   Cu228   1.952   .     S
O136   C334    1.252   .     A
O137   Cu237   1.952   1_565 S
O137   C392    1.252   .     A
O138   Cu238   1.952   .     S
O138   C394    1.252   .     A
O139   Cu239   1.952   1_565 S
O139   C322    1.252   .     A
O140   Cu240   1.952   .     S
O140   C324    1.252   .     A
O141   Cu233   1.952   1_565 S
O141   C396    1.252   .     A
O142   Cu234   1.952   .     S
O142   C330    1.252   .     A
O143   Cu235   1.952   1_565 S
O143   C326    1.252   .     A
O144   Cu236   1.952   .     S
O144   C328    1.252   .     A
O145   Cu197   1.952   1_556 S
O145   C398    1.252   .     A
O146   Cu198   1.952   .     S
O146   C400    1.252   .     A
O147   Cu199   1.952   .     S
O147   C244    1.252   .     A
O148   Cu200   1.952   1_556 S
O148   C242    1.252   .     A
O149   Cu193   1.952   1_556 S
O149   C250    1.252   .     A
O150   Cu194   1.952   .     S
O150   C402    1.252   .     A
O151   Cu195   1.952   .     S
O151   C248    1.252   .     A
O152   Cu196   1.952   1_556 S
O152   C246    1.252   .     A
O153   Cu201   1.952   .     S
O153   C404    1.252   .     A
O154   Cu202   1.952   .     S
O154   C406    1.252   .     A
O155   Cu203   1.952   .     S
O155   C260    1.252   .     A
O156   Cu204   1.952   .     S
O156   C258    1.252   .     A
O157   Cu205   1.952   .     S
O157   C408    1.252   .     A
O158   Cu206   1.952   .     S
O158   C256    1.252   .     A
O159   Cu207   1.952   .     S
O159   C254    1.252   .     A
O160   Cu208   1.952   .     S
O160   C252    1.252   .     A
O161   Cu237   1.952   .     S
O161   C410    1.252   .     A
O162   Cu238   1.952   .     S
O162   C412    1.252   .     A
O163   Cu239   1.952   .     S
O163   C292    1.252   .     A
O164   Cu240   1.952   .     S
O164   C294    1.252   .     A
O165   Cu233   1.952   .     S
O165   C414    1.252   .     A
O166   Cu234   1.952   .     S
O166   C300    1.252   .     A
O167   Cu235   1.952   .     S
O167   C296    1.252   .     A
O168   Cu236   1.952   .     S
O168   C298    1.252   .     A
O169   Cu225   1.952   1_565 S
O169   C290    1.252   .     A
O170   Cu226   1.952   .     S
O170   C416    1.252   .     A
O171   Cu227   1.952   1_565 S
O171   C286    1.252   .     A
O172   Cu228   1.952   .     S
O172   C288    1.252   .     A
O173   Cu229   1.952   1_565 S
O173   C418    1.252   .     A
O174   Cu230   1.952   .     S
O174   C420    1.252   .     A
O175   Cu231   1.952   1_565 S
O175   C282    1.252   .     A
O176   Cu232   1.952   .     S
O176   C284    1.252   .     A
O177   Cu217   1.952   .     S
O177   C422    1.252   .     A
O178   Cu218   1.952   .     S
O178   C278    1.252   .     A
O179   Cu219   1.952   .     S
O179   C424    1.252   .     A
O180   Cu220   1.952   .     S
O180   C280    1.252   .     A
O181   Cu221   1.952   .     S
O181   C426    1.252   .     A
O182   Cu222   1.952   .     S
O182   C272    1.252   .     A
O183   Cu223   1.952   .     S
O183   C276    1.252   .     A
O184   Cu224   1.952   .     S
O184   C274    1.252   .     A
O185   Cu213   1.952   1_655 S
O185   C428    1.252   .     A
O186   Cu214   1.952   1_655 S
O186   C262    1.252   .     A
O187   Cu215   1.952   .     S
O187   C430    1.252   .     A
O188   Cu216   1.952   .     S
O188   C264    1.252   .     A
O189   Cu209   1.952   1_655 S
O189   C268    1.252   .     A
O190   Cu210   1.952   1_655 S
O190   C266    1.252   .     A
O191   Cu211   1.952   .     S
O191   C432    1.252   .     A
O192   Cu212   1.952   .     S
O192   C270    1.252   .     A
Cu193  O1      1.952   1_554 S
Cu193  O149    1.952   1_554 S
Cu193  Cu200   2.628   .     S
Cu194  Cu199   2.628   .     S
Cu195  Cu198   2.628   .     S
Cu196  O4      1.952   1_554 S
Cu196  O152    1.952   1_554 S
Cu196  Cu197   2.628   .     S
Cu197  O5      1.952   1_554 S
Cu197  O145    1.952   1_554 S
Cu200  O8      1.952   1_554 S
Cu200  O148    1.952   1_554 S
Cu201  O61     1.952   1_554 S
Cu201  O109    1.952   1_554 S
Cu201  Cu208   2.628   .     S
Cu202  Cu207   2.628   .     S
Cu203  Cu206   2.628   .     S
Cu204  O64     1.952   1_554 S
Cu204  O112    1.952   1_554 S
Cu204  Cu205   2.628   .     S
Cu205  O57     1.952   1_554 S
Cu205  O105    1.952   1_554 S
Cu208  O60     1.952   1_554 S
Cu208  O108    1.952   1_554 S
Cu209  O17     1.952   1_455 S
Cu209  O189    1.952   1_455 S
Cu209  Cu214   2.628   .     S
Cu210  O18     1.952   1_455 S
Cu210  O190    1.952   1_455 S
Cu210  Cu213   2.628   .     S
Cu211  Cu216   2.628   .     S
Cu212  Cu215   2.628   .     S
Cu213  O21     1.952   1_455 S
Cu213  O185    1.952   1_455 S
Cu214  O22     1.952   1_455 S
Cu214  O186    1.952   1_455 S
Cu217  O85     1.952   1_455 S
Cu217  O125    1.952   1_455 S
Cu217  Cu222   2.628   .     S
Cu218  O86     1.952   1_455 S
Cu218  O126    1.952   1_455 S
Cu218  Cu221   2.628   .     S
Cu219  Cu224   2.628   .     S
Cu220  Cu223   2.628   .     S
Cu221  O81     1.952   1_455 S
Cu221  O121    1.952   1_455 S
Cu222  O82     1.952   1_455 S
Cu222  O122    1.952   1_455 S
Cu225  O33     1.952   1_545 S
Cu225  O169    1.952   1_545 S
Cu225  Cu231   2.628   .     S
Cu226  Cu232   2.628   .     S
Cu227  O35     1.952   1_545 S
Cu227  O171    1.952   1_545 S
Cu227  Cu229   2.628   .     S
Cu228  Cu230   2.628   .     S
Cu229  O37     1.952   1_545 S
Cu229  O173    1.952   1_545 S
Cu231  O39     1.952   1_545 S
Cu231  O175    1.952   1_545 S
Cu233  O65     1.952   1_545 S
Cu233  O141    1.952   1_545 S
Cu233  Cu239   2.628   .     S
Cu234  Cu240   2.628   .     S
Cu235  O67     1.952   1_545 S
Cu235  O143    1.952   1_545 S
Cu235  Cu237   2.628   .     S
Cu236  Cu238   2.628   .     S
Cu237  O69     1.952   1_545 S
Cu237  O137    1.952   1_545 S
Cu239  O71     1.952   1_545 S
Cu239  O139    1.952   1_545 S
C241   C433    1.397   .     A
C241   C491    1.397   .     A
C241   C242    1.498   .     S
C243   C435    1.397   .     A
C243   C591    1.397   .     A
C243   C244    1.498   .     S
C245   C437    1.397   .     A
C245   C475    1.397   .     A
C245   C246    1.498   .     S
C247   C439    1.397   .     A
C247   C477    1.397   .     A
C247   C248    1.498   .     S
C249   C593    1.397   .     A
C249   C613    1.397   .     A
C249   C250    1.498   .     S
C251   C443    1.397   .     A
C251   C487    1.397   .     A
C251   C252    1.498   .     S
C253   C445    1.397   .     A
C253   C599    1.397   .     A
C253   C254    1.498   .     S
C255   C485    1.397   .     A
C255   C615    1.397   .     A
C255   C256    1.498   .     S
C257   C449    1.397   .     A
C257   C483    1.397   .     A
C257   C258    1.498   .     S
C259   C451    1.397   .     A
C259   C595    1.397   .     A
C259   C260    1.498   .     S
C261   C453    1.397   .     A
C261   C619    1.397   .     A
C261   C262    1.498   .     S
C263   C457    1.397   .     A
C263   C451    1.397   .     A
C263   C264    1.498   .     S
C265   C459    1.397   .     A
C265   C623    1.397   .     A
C265   C266    1.498   .     S
C267   C621    1.397   .     A
C267   C461    1.397   .     A
C267   C268    1.498   .     S
C269   C605    1.397   .     A
C269   C435    1.397   .     A
C269   C270    1.498   .     S
C271   C465    1.397   .     A
C271   C447    1.397   .     A
C271   C272    1.498   .     S
C273   C603    1.397   .     A
C273   C445    1.397   .     A
C273   C274    1.498   .     S
C275   C443    1.397   .     A
C275   C601    1.397   .     A
C275   C276    1.498   .     S
C277   C469    1.397   .     A
C277   C613    1.397   .     A
C277   C278    1.498   .     S
C279   C611    1.397   .     A
C279   C439    1.397   .     A
C279   C280    1.498   .     S
C281   C473    1.397   .     A
C281   C471    1.397   .     A
C281   C282    1.498   .     S
C283   C593    1.397   .     A
C283   C469    1.397   .     A
C283   C284    1.498   .     S
C285   C479    1.397   .     A
C285   C455    1.397   .     A
C285   C286    1.498   .     S
C287   C481    1.397   .     A
C287   C453    1.397   .     A
C287   C288    1.498   .     S
C289   C607    1.397   .     A
C289   C483    1.397   .     A
C289   C290    1.498   .     S
C291   C485    1.397   .     A
C291   C467    1.397   .     A
C291   C292    1.498   .     S
C293   C597    1.397   .     A
C293   C465    1.397   .     A
C293   C294    1.498   .     S
C295   C489    1.397   .     A
C295   C461    1.397   .     A
C295   C296    1.498   .     S
C297   C589    1.397   .     A
C297   C459    1.397   .     A
C297   C298    1.498   .     S
C299   C605    1.397   .     A
C299   C591    1.397   .     A
C299   C300    1.498   .     S
C301   C493    1.397   .     A
C301   C551    1.397   .     A
C301   C302    1.498   .     S
C303   C585    1.397   .     A
C303   C549    1.397   .     A
C303   C304    1.498   .     S
C305   C497    1.397   .     A
C305   C535    1.397   .     A
C305   C306    1.498   .     S
C307   C577    1.397   .     A
C307   C533    1.397   .     A
C307   C308    1.498   .     S
C309   C537    1.397   .     A
C309   C501    1.397   .     A
C309   C310    1.498   .     S
C311   C503    1.397   .     A
C311   C547    1.397   .     A
C311   C312    1.498   .     S
C313   C505    1.397   .     A
C313   C545    1.397   .     A
C313   C314    1.498   .     S
C315   C509    1.397   .     A
C315   C541    1.397   .     A
C315   C316    1.498   .     S
C317   C581    1.397   .     A
C317   C539    1.397   .     A
C317   C318    1.498   .     S
C319   C543    1.397   .     A
C319   C511    1.397   .     A
C319   C320    1.498   .     S
C321   C513    1.397   .     A
C321   C583    1.397   .     A
C321   C322    1.498   .     S
C323   C515    1.397   .     A
C323   C511    1.397   .     A
C323   C324    1.498   .     S
C325   C517    1.397   .     A
C325   C587    1.397   .     A
C325   C326    1.498   .     S
C327   C519    1.397   .     A
C327   C495    1.397   .     A
C327   C328    1.498   .     S
C329   C493    1.397   .     A
C329   C521    1.397   .     A
C329   C330    1.498   .     S
C331   C523    1.397   .     A
C331   C579    1.397   .     A
C331   C332    1.498   .     S
C333   C525    1.397   .     A
C333   C507    1.397   .     A
C333   C334    1.498   .     S
C335   C505    1.397   .     A
C335   C527    1.397   .     A
C335   C336    1.498   .     S
C337   C529    1.397   .     A
C337   C501    1.397   .     A
C337   C338    1.498   .     S
C339   C531    1.397   .     A
C339   C499    1.397   .     A
C339   C340    1.498   .     S
C341   C533    1.397   .     A
C341   C575    1.397   .     A
C341   C342    1.498   .     S
C343   C537    1.397   .     A
C343   C529    1.397   .     A
C343   C344    1.498   .     S
C345   C539    1.397   .     A
C345   C571    1.397   .     A
C345   C346    1.498   .     S
C347   C559    1.397   .     A
C347   C513    1.397   .     A
C347   C348    1.498   .     S
C349   C515    1.397   .     A
C349   C543    1.397   .     A
C349   C350    1.498   .     S
C351   C545    1.397   .     A
C351   C527    1.397   .     A
C351   C352    1.498   .     S
C353   C561    1.397   .     A
C353   C523    1.397   .     A
C353   C354    1.498   .     S
C355   C549    1.397   .     A
C355   C567    1.397   .     A
C355   C356    1.498   .     S
C357   C521    1.397   .     A
C357   C551    1.397   .     A
C357   C358    1.498   .     S
C359   C553    1.397   .     A
C359   C517    1.397   .     A
C359   C360    1.498   .     S
C361   C553    1.397   .     A
C361   C587    1.397   .     A
C361   C362    1.498   .     S
C363   C555    1.397   .     A
C363   C495    1.397   .     A
C363   C364    1.498   .     S
C365   C557    1.397   .     A
C365   C499    1.397   .     A
C365   C366    1.498   .     S
C367   C559    1.397   .     A
C367   C583    1.397   .     A
C367   C368    1.498   .     S
C369   C561    1.397   .     A
C369   C579    1.397   .     A
C369   C370    1.498   .     S
C371   C563    1.397   .     A
C371   C507    1.397   .     A
C371   C372    1.498   .     S
C373   C565    1.397   .     A
C373   C547    1.397   .     A
C373   C374    1.498   .     S
C375   C525    1.397   .     A
C375   C563    1.397   .     A
C375   C376    1.498   .     S
C377   C519    1.397   .     A
C377   C555    1.397   .     A
C377   C378    1.498   .     S
C379   C569    1.397   .     A
C379   C541    1.397   .     A
C379   C380    1.498   .     S
C381   C573    1.397   .     A
C381   C535    1.397   .     A
C381   C382    1.498   .     S
C383   C531    1.397   .     A
C383   C557    1.397   .     A
C383   C384    1.498   .     S
C385   C577    1.397   .     A
C385   C575    1.397   .     A
C385   C386    1.498   .     S
C387   C497    1.397   .     A
C387   C573    1.397   .     A
C387   C388    1.498   .     S
C389   C503    1.397   .     A
C389   C565    1.397   .     A
C389   C390    1.498   .     S
C391   C581    1.397   .     A
C391   C571    1.397   .     A
C391   C392    1.498   .     S
C393   C509    1.397   .     A
C393   C569    1.397   .     A
C393   C394    1.498   .     S
C395   C585    1.397   .     A
C395   C567    1.397   .     A
C395   C396    1.498   .     S
C397   C589    1.397   .     A
C397   C623    1.397   .     A
C397   C398    1.498   .     S
C399   C489    1.397   .     A
C399   C621    1.397   .     A
C399   C400    1.498   .     S
C401   C473    1.397   .     A
C401   C441    1.397   .     A
C401   C402    1.498   .     S
C403   C481    1.397   .     A
C403   C619    1.397   .     A
C403   C404    1.498   .     S
C405   C479    1.397   .     A
C405   C617    1.397   .     A
C405   C406    1.498   .     S
C407   C597    1.397   .     A
C407   C447    1.397   .     A
C407   C408    1.498   .     S
C409   C601    1.397   .     A
C409   C487    1.397   .     A
C409   C410    1.498   .     S
C411   C603    1.397   .     A
C411   C599    1.397   .     A
C411   C412    1.498   .     S
C413   C463    1.397   .     A
C413   C491    1.397   .     A
C413   C414    1.498   .     S
C415   C457    1.397   .     A
C415   C595    1.397   .     A
C415   C416    1.498   .     S
C417   C609    1.397   .     A
C417   C475    1.397   .     A
C417   C418    1.498   .     S
C419   C611    1.397   .     A
C419   C477    1.397   .     A
C419   C420    1.498   .     S
C421   C441    1.397   .     A
C421   C471    1.397   .     A
C421   C422    1.498   .     S
C423   C437    1.397   .     A
C423   C609    1.397   .     A
C423   C424    1.498   .     S
C425   C615    1.397   .     A
C425   C467    1.397   .     A
C425   C426    1.498   .     S
C427   C617    1.397   .     A
C427   C455    1.397   .     A
C427   C428    1.498   .     S
C429   C449    1.397   .     A
C429   C607    1.397   .     A
C429   C430    1.498   .     S
C431   C433    1.397   .     A
C431   C463    1.397   .     A
C431   C432    1.498   .     S
C433   H434    0.931   .     S
C435   H436    0.931   .     S
C437   H438    0.931   .     S
C439   H440    0.931   .     S
C441   H442    0.931   .     S
C443   H444    0.931   .     S
C445   H446    0.931   .     S
C447   H448    0.931   .     S
C449   H450    0.931   .     S
C451   H452    0.931   .     S
C453   H454    0.931   .     S
C455   H456    0.931   .     S
C457   H458    0.931   .     S
C459   H460    0.931   .     S
C461   H462    0.931   .     S
C463   H464    0.931   .     S
C465   H466    0.931   .     S
C467   H468    0.931   .     S
C469   H470    0.931   .     S
C471   H472    0.931   .     S
C473   H474    0.931   .     S
C475   H476    0.931   .     S
C477   H478    0.931   .     S
C479   H480    0.931   .     S
C481   H482    0.931   .     S
C483   H484    0.931   .     S
C485   H486    0.931   .     S
C487   H488    0.931   .     S
C489   H490    0.931   .     S
C491   H492    0.931   .     S
C493   H494    0.931   .     S
C495   H496    0.931   .     S
C497   H498    0.931   .     S
C499   H500    0.931   .     S
C501   H502    0.931   .     S
C503   H504    0.931   .     S
C505   H506    0.931   .     S
C507   H508    0.931   .     S
C509   H510    0.931   .     S
C511   H512    0.931   .     S
C513   H514    0.931   .     S
C515   H516    0.931   .     S
C517   H518    0.931   .     S
C519   H520    0.931   .     S
C521   H522    0.931   .     S
C523   H524    0.931   .     S
C525   H526    0.931   .     S
C527   H528    0.931   .     S
C529   H530    0.931   .     S
C531   H532    0.931   .     S
C533   H534    0.931   .     S
C535   H536    0.931   .     S
C537   H538    0.931   .     S
C539   H540    0.931   .     S
C541   H542    0.931   .     S
C543   H544    0.931   .     S
C545   H546    0.931   .     S
C547   H548    0.931   .     S
C549   H550    0.931   .     S
C551   H552    0.931   .     S
C553   H554    0.931   .     S
C555   H556    0.931   .     S
C557   H558    0.931   .     S
C559   H560    0.931   .     S
C561   H562    0.931   .     S
C563   H564    0.931   .     S
C565   H566    0.931   .     S
C567   H568    0.931   .     S
C569   H570    0.931   .     S
C571   H572    0.931   .     S
C573   H574    0.931   .     S
C575   H576    0.931   .     S
C577   H578    0.931   .     S
C579   H580    0.931   .     S
C581   H582    0.931   .     S
C583   H584    0.931   .     S
C585   H586    0.931   .     S
C587   H588    0.931   .     S
C589   H590    0.931   .     S
C591   H592    0.931   .     S
C593   H594    0.931   .     S
C595   H596    0.931   .     S
C597   H598    0.931   .     S
C599   H600    0.931   .     S
C601   H602    0.931   .     S
C603   H604    0.931   .     S
C605   H606    0.931   .     S
C607   H608    0.931   .     S
C609   H610    0.931   .     S
C611   H612    0.931   .     S
C613   H614    0.931   .     S
C615   H616    0.931   .     S
C617   H618    0.931   .     S
C619   H620    0.931   .     S
C621   H622    0.931   .     S
C623   H624    0.931   .     S
